


130133  0  0  0  0  0  0  0  0999 V2000
   16.6999  -13.0723  -11.3639 C   0  0  0  0  0  0  0  0  0  0  0  0
   14.0122  -14.3381  -15.3856 C   0  0  0  0  0  0  0  0  0  0  0  0
   11.9787  -18.8963  -15.7003 C   0  0  0  0  0  0  0  0  0  0  0  0
    9.2910  -20.1620  -19.7220 C   0  0  0  0  0  0  0  0  0  0  0  0
    8.6368  -16.8694  -23.4288 C   0  0  0  0  0  0  0  0  0  0  0  0
   10.6696  -12.3137  -23.1134 C   0  0  0  0  0  0  0  0  0  0  0  0
   13.3573  -11.0479  -19.0917 C   0  0  0  0  0  0  0  0  0  0  0  0
    5.9488  -18.1353  -27.4508 O   0  0  0  0  0  0  0  0  0  0  0  0
    5.5678  -18.9893  -27.5098 H   0  0  0  0  0  0  0  0  0  0  0  0
   18.7372   -8.6541  -12.5072 C   0  0  0  0  0  0  0  0  0  0  0  0
   22.7462   -5.9117  -13.6952 N   0  0  0  0  0  0  0  0  0  0  0  0
   14.9310   -5.4125  -12.4220 O   0  0  0  0  0  0  0  0  0  0  0  0
   23.4956   -6.5500  -13.7120 H   0  0  0  0  0  0  0  0  0  0  0  0
   24.7852   -1.4915  -14.8392 C   0  0  0  0  0  0  0  0  0  0  0  0
   28.4267    1.8826  -14.2409 C   0  0  0  0  0  0  0  0  0  0  0  0
   30.9347    5.0765  -11.3231 N   0  0  0  0  0  0  0  0  0  0  0  0
   26.2366    1.5342   -9.7597 O   0  0  0  0  0  0  0  0  0  0  0  0
   30.5034    5.0079  -10.4407 H   0  0  0  0  0  0  0  0  0  0  0  0
   34.5763    8.4507  -10.7247 C   0  0  0  0  0  0  0  0  0  0  0  0
   38.9905    9.7555   -8.7780 C   0  0  0  0  0  0  0  0  0  0  0  0
   43.5226    8.4877   -7.0874 N   0  0  0  0  0  0  0  0  0  0  0  0
   38.7679   14.7260   -8.2809 O   0  0  0  0  0  0  0  0  0  0  0  0
   43.5664    7.5090   -7.1853 H   0  0  0  0  0  0  0  0  0  0  0  0
   47.9392    9.7925   -5.1397 C   0  0  0  0  0  0  0  0  0  0  0  0
   51.7184    8.8955   -1.9905 C   0  0  0  0  0  0  0  0  0  0  0  0
   56.2571    6.9939   -1.1022 N   0  0  0  0  0  0  0  0  0  0  0  0
   53.1856    6.9546   -6.3585 O   0  0  0  0  0  0  0  0  0  0  0  0
   56.5460    6.6117   -1.9623 H   0  0  0  0  0  0  0  0  0  0  0  0
   60.0362    6.0969    2.0470 C   0  0  0  0  0  0  0  0  0  0  0  0
   61.8303    5.8891    6.7071 C   0  0  0  0  0  0  0  0  0  0  0  0
   61.1083    5.1207   11.5950 N   0  0  0  0  0  0  0  0  0  0  0  0
   62.9027    4.9126   16.2577 C   0  0  0  0  0  0  0  0  0  0  0  0
   66.6926    6.9716    6.2718 O   0  0  0  0  0  0  0  0  0  0  0  0
   58.9697    3.7223   19.1075 C   0  0  0  0  0  0  0  0  0  0  0  0
   56.2463    4.0382   12.0303 C   0  0  0  0  0  0  0  0  0  0  0  0
   54.4815    3.0377   17.0116 C   0  0  0  0  0  0  0  0  0  0  0  0
   62.1807    4.1441   21.1457 C   0  0  0  0  0  0  0  0  0  0  0  0
   67.0396    3.2337   20.3967 O   0  0  0  0  0  0  0  0  0  0  0  0
   60.8334    3.5321   25.9228 O   0  0  0  0  0  0  0  0  0  0  0  0
   59.9442    3.6758   26.1809 H   0  0  0  0  0  0  0  0  0  0  0  0
   64.7968    4.6586    1.5359 C   0  0  0  0  0  0  0  0  0  0  0  0
   66.2541    2.2555   -2.5986 S   0  0  0  0  0  0  0  0  0  0  0  0
   65.3553    1.9928   -3.5849 H   0  0  0  0  0  0  0  0  0  0  0  0
   48.9946    6.2141   -1.8098 C   0  0  0  0  0  0  0  0  0  0  0  0
   46.3058    5.8374    2.3896 C   0  0  0  0  0  0  0  0  0  0  0  0
   50.9474    3.9867    2.2174 N   0  0  0  0  0  0  0  0  0  0  0  0
   45.8824    4.3334    7.1392 C   0  0  0  0  0  0  0  0  0  0  0  0
   50.5239    2.4827    6.9670 N   0  0  0  0  0  0  0  0  0  0  0  0
   54.7567    1.6315    4.4429 C   0  0  0  0  0  0  0  0  0  0  0  0
   51.2644    4.1785    1.3053 H   0  0  0  0  0  0  0  0  0  0  0  0
   50.6799    2.1023    7.8616 H   0  0  0  0  0  0  0  0  0  0  0  0
   31.1932   10.6991  -13.6413 C   0  0  0  0  0  0  0  0  0  0  0  0
   27.5561   13.4481  -11.5869 C   0  0  0  0  0  0  0  0  0  0  0  0
   23.5506   11.2085   -9.6000 C   0  0  0  0  0  0  0  0  0  0  0  0
   23.9404    6.5831   -7.7396 N   0  0  0  0  0  0  0  0  0  0  0  0
   19.1579   13.5931   -9.4735 O   0  0  0  0  0  0  0  0  0  0  0  0
   23.1520    6.1419   -7.3484 H   0  0  0  0  0  0  0  0  0  0  0  0
   24.8054    6.1138   -7.7646 H   0  0  0  0  0  0  0  0  0  0  0  0
   28.9374   -1.2236  -12.0654 C   0  0  0  0  0  0  0  0  0  0  0  0
   31.7039   -5.3195  -11.3067 C   0  0  0  0  0  0  0  0  0  0  0  0
   30.3821   -9.6543  -13.4206 C   0  0  0  0  0  0  0  0  0  0  0  0
   25.5603  -10.6290  -14.3163 C   0  0  0  0  0  0  0  0  0  0  0  0
   22.3225  -10.9202  -10.5165 N   0  0  0  0  0  0  0  0  0  0  0  0
   21.3388  -11.1190  -10.6988 H   0  0  0  0  0  0  0  0  0  0  0  0
   22.6458  -10.7807   -9.5592 H   0  0  0  0  0  0  0  0  0  0  0  0
   21.6621  -10.9795   -9.7415 H   0  0  0  0  0  0  0  0  0  0  0  0
   17.4407  -21.2975   -6.3524 C   0  0  0  0  0  0  0  0  0  0  0  0
   16.0530  -16.8377   -8.1377 N   0  0  0  0  0  0  0  0  0  0  0  0
   13.5100  -19.9556   -3.5689 O   0  0  0  0  0  0  0  0  0  0  0  0
   15.2790  -16.5735   -7.5897 H   0  0  0  0  0  0  0  0  0  0  0  0
   16.7938  -25.0629   -3.1263 C   0  0  0  0  0  0  0  0  0  0  0  0
   16.0423  -25.7881    6.4772 C   0  0  0  0  0  0  0  0  0  0  0  0
   16.3824  -26.7151    1.5754 N   0  0  0  0  0  0  0  0  0  0  0  0
   16.1802  -20.8047    6.8643 O   0  0  0  0  0  0  0  0  0  0  0  0
   16.3552  -27.6963    1.4991 H   0  0  0  0  0  0  0  0  0  0  0  0
   15.6310  -27.4401   11.1762 C   0  0  0  0  0  0  0  0  0  0  0  0
   18.4964  -24.4306   19.8969 C   0  0  0  0  0  0  0  0  0  0  0  0
   16.1768  -26.6973   16.0909 N   0  0  0  0  0  0  0  0  0  0  0  0
   15.0694  -27.3745   22.0389 O   0  0  0  0  0  0  0  0  0  0  0  0
   15.5020  -27.2769   16.5126 H   0  0  0  0  0  0  0  0  0  0  0  0
   19.0421  -23.6878   24.8117 C   0  0  0  0  0  0  0  0  0  0  0  0
   18.7845  -19.1040   22.8310 C   0  0  0  0  0  0  0  0  0  0  0  0
   20.1950  -19.8220   33.5892 C   0  0  0  0  0  0  0  0  0  0  0  0
   19.4545  -20.5724   28.7012 N   0  0  0  0  0  0  0  0  0  0  0  0
   20.8289  -24.3914   35.5184 O   0  0  0  0  0  0  0  0  0  0  0  0
   19.3297  -19.6728   28.3213 H   0  0  0  0  0  0  0  0  0  0  0  0
   20.6071  -16.7077   37.4763 C   0  0  0  0  0  0  0  0  0  0  0  0
   21.0977   -7.4107   40.0539 C   0  0  0  0  0  0  0  0  0  0  0  0
   21.9840  -12.2816   39.3519 N   0  0  0  0  0  0  0  0  0  0  0  0
   25.4702   -8.2701   42.3214 O   0  0  0  0  0  0  0  0  0  0  0  0
   22.8449  -12.4509   39.7984 H   0  0  0  0  0  0  0  0  0  0  0  0
   22.4746   -2.9847   41.9295 C   0  0  0  0  0  0  0  0  0  0  0  0
   27.9977    4.5909   39.6002 C   0  0  0  0  0  0  0  0  0  0  0  0
   25.6217    0.9006   41.9962 N   0  0  0  0  0  0  0  0  0  0  0  0
   26.5080    4.2138   34.8418 O   0  0  0  0  0  0  0  0  0  0  0  0
   25.9150    0.9749   42.9331 H   0  0  0  0  0  0  0  0  0  0  0  0
   35.1849   11.4129   39.8305 N   0  0  0  0  0  0  0  0  0  0  0  0
   31.1432    8.4741   39.6675 C   0  0  0  0  0  0  0  0  0  0  0  0
   36.1137   10.9988   39.9086 H   0  0  0  0  0  0  0  0  0  0  0  0
   35.0805   12.4265   39.7857 H   0  0  0  0  0  0  0  0  0  0  0  0
   36.0094   12.0124   39.8638 H   0  0  0  0  0  0  0  0  0  0  0  0
   28.2190   12.5149   39.3198 C   0  0  0  0  0  0  0  0  0  0  0  0
   25.2949   16.5557   38.9720 C   0  0  0  0  0  0  0  0  0  0  0  0
   24.2879    9.7964   40.7873 O   0  0  0  0  0  0  0  0  0  0  0  0
   24.3978    8.8538   40.9881 H   0  0  0  0  0  0  0  0  0  0  0  0
   25.8944   -4.0294   38.4347 C   0  0  0  0  0  0  0  0  0  0  0  0
   28.2040   -2.8710   34.1534 C   0  0  0  0  0  0  0  0  0  0  0  0
   25.5632   -2.4299   29.9298 C   0  0  0  0  0  0  0  0  0  0  0  0
   27.2339    0.4930   26.2323 N   0  0  0  0  0  0  0  0  0  0  0  0
   21.2541   -4.9104   29.4041 O   0  0  0  0  0  0  0  0  0  0  0  0
   26.7142    0.5801   25.4006 H   0  0  0  0  0  0  0  0  0  0  0  0
   28.0824    0.9813   26.3360 H   0  0  0  0  0  0  0  0  0  0  0  0
   18.7439  -19.2381   41.3655 C   0  0  0  0  0  0  0  0  0  0  0  0
   17.9270  -23.5707   43.7222 C   0  0  0  0  0  0  0  0  0  0  0  0
   14.0244  -26.4196   42.4389 C   0  0  0  0  0  0  0  0  0  0  0  0
    9.4970  -25.4593   44.3291 N   0  0  0  0  0  0  0  0  0  0  0  0
   14.6497  -30.2308   39.2637 O   0  0  0  0  0  0  0  0  0  0  0  0
    8.7287  -26.0206   44.0760 H   0  0  0  0  0  0  0  0  0  0  0  0
    9.3736  -24.7089   44.9543 H   0  0  0  0  0  0  0  0  0  0  0  0
   14.0647  -31.6830   13.3095 C   0  0  0  0  0  0  0  0  0  0  0  0
    9.5515  -33.5236   12.1916 O   0  0  0  0  0  0  0  0  0  0  0  0
    9.2473  -34.3466   12.6052 H   0  0  0  0  0  0  0  0  0  0  0  0
   17.2487  -20.9803   -0.2757 C   0  0  0  0  0  0  0  0  0  0  0  0
   15.1637  -17.1350    2.1449 C   0  0  0  0  0  0  0  0  0  0  0  0
   19.5426  -18.9849    3.6945 N   0  0  0  0  0  0  0  0  0  0  0  0
   15.2830  -13.7623    5.8340 C   0  0  0  0  0  0  0  0  0  0  0  0
   19.6619  -15.6122    7.3836 N   0  0  0  0  0  0  0  0  0  0  0  0
   23.3935  -18.9002    6.8805 C   0  0  0  0  0  0  0  0  0  0  0  0
   19.7431  -19.7206    3.0719 H   0  0  0  0  0  0  0  0  0  0  0  0
   19.9079  -15.0650    8.1642 H   0  0  0  0  0  0  0  0  0  0  0  0
 97 98  1  0  0  0
 97 99  1  0  0  0
 97100  1  0  0  0
 97101  1  0  0  0
 98102  1  0  0  0
 98 93  1  0  0  0
102103  1  0  0  0
102104  1  0  0  0
104105  1  0  0  0
 93 94  1  0  0  0
 93 95  2  0  0  0
 94 92  1  0  0  0
 94 96  1  0  0  0
 92 88  1  0  0  0
 92106  1  0  0  0
 88 89  1  0  0  0
 88 90  2  0  0  0
 89 87  1  0  0  0
 89 91  1  0  0  0
 87 83  1  0  0  0
 87113  1  0  0  0
 83 84  1  0  0  0
 83 85  2  0  0  0
 84 81  1  0  0  0
 84 86  1  0  0  0
 81 77  1  0  0  0
 81 82  1  0  0  0
 77 78  1  0  0  0
 77 79  2  0  0  0
 78 76  1  0  0  0
 78 80  1  0  0  0
 76 72  1  0  0  0
 76120  1  0  0  0
 72 73  1  0  0  0
 72 74  2  0  0  0
 73 71  1  0  0  0
 73 75  1  0  0  0
 71 67  1  0  0  0
 71123  1  0  0  0
106107  1  0  0  0
107108  1  0  0  0
108109  1  0  0  0
108110  2  0  0  0
109111  1  0  0  0
109112  1  0  0  0
113114  1  0  0  0
114115  1  0  0  0
115116  1  0  0  0
115117  2  0  0  0
116118  1  0  0  0
116119  1  0  0  0
120121  1  0  0  0
121122  1  0  0  0
 67 68  1  0  0  0
 67 69  2  0  0  0
 68  1  1  0  0  0
 68 70  1  0  0  0
  1 10  1  0  0  0
  1  2  1  0  0  0
 10 11  1  0  0  0
 10 12  2  0  0  0
 11 14  1  0  0  0
 11 13  1  0  0  0
 14 15  1  0  0  0
 14 59  1  0  0  0
 15 16  1  0  0  0
 15 17  2  0  0  0
 16 19  1  0  0  0
 16 18  1  0  0  0
 19 20  1  0  0  0
 19 52  1  0  0  0
123124  1  0  0  0
124125  1  0  0  0
124126  2  0  0  0
125128  1  0  0  0
125129  1  0  0  0
126127  1  0  0  0
127128  2  0  0  0
127130  1  0  0  0
  2  3  2  0  0  0
  3  4  1  0  0  0
  4  5  2  0  0  0
  5  6  1  0  0  0
  5  8  1  0  0  0
  6  7  2  0  0  0
  7  2  1  0  0  0
  8  9  1  0  0  0
 59 60  1  0  0  0
 60 61  1  0  0  0
 61 62  1  0  0  0
 62 63  1  0  0  0
 63 64  1  0  0  0
 63 65  1  0  0  0
 63 66  1  0  0  0
 20 21  1  0  0  0
 20 22  2  0  0  0
 21 24  1  0  0  0
 21 23  1  0  0  0
 24 25  1  0  0  0
 24 44  1  0  0  0
 25 26  1  0  0  0
 25 27  2  0  0  0
 26 29  1  0  0  0
 26 28  1  0  0  0
 29 30  1  0  0  0
 29 41  1  0  0  0
 30 31  1  0  0  0
 30 33  2  0  0  0
 31 32  1  0  0  0
 31 35  1  0  0  0
 32 37  1  0  0  0
 32 34  1  0  0  0
 37 38  2  0  0  0
 37 39  1  0  0  0
 52 53  1  0  0  0
 53 54  1  0  0  0
 54 55  1  0  0  0
 54 56  2  0  0  0
 55 57  1  0  0  0
 55 58  1  0  0  0
 44 45  1  0  0  0
 45 46  1  0  0  0
 45 47  2  0  0  0
 46 49  1  0  0  0
 46 50  1  0  0  0
 47 48  1  0  0  0
 48 49  2  0  0  0
 48 51  1  0  0  0
 41 42  1  0  0  0
 42 43  1  0  0  0
 39 40  1  0  0  0
 34 36  1  0  0  0
 35 36  1  0  0  0
M  CHG 1  48   1
M  CHG 1  63   1
M  CHG 1  97   1
M  CHG 1 127   1
M  END
> <minimizedAffinity>
-9.45409

$$$$



130133  0  0  0  0  0  0  0  0999 V2000
   16.4877  -13.0338  -11.3913 C   0  0  0  0  0  0  0  0  0  0  0  0
   13.8414  -14.3643  -15.4196 C   0  0  0  0  0  0  0  0  0  0  0  0
   14.6936  -12.1403  -19.8172 C   0  0  0  0  0  0  0  0  0  0  0  0
   12.0474  -13.4709  -23.8455 C   0  0  0  0  0  0  0  0  0  0  0  0
    8.5490  -17.0254  -23.4759 C   0  0  0  0  0  0  0  0  0  0  0  0
    7.6979  -19.2477  -19.0801 C   0  0  0  0  0  0  0  0  0  0  0  0
   10.3442  -17.9172  -15.0518 C   0  0  0  0  0  0  0  0  0  0  0  0
    5.9025  -18.3560  -27.5045 O   0  0  0  0  0  0  0  0  0  0  0  0
    6.0621  -17.9394  -28.3285 H   0  0  0  0  0  0  0  0  0  0  0  0
   18.4677   -8.5941  -12.5523 C   0  0  0  0  0  0  0  0  0  0  0  0
   22.4261   -5.8187  -13.8297 N   0  0  0  0  0  0  0  0  0  0  0  0
   14.6481   -5.3748  -12.3285 O   0  0  0  0  0  0  0  0  0  0  0  0
   23.1781   -6.4526  -13.8738 H   0  0  0  0  0  0  0  0  0  0  0  0
   24.4077   -1.3771  -14.9914 C   0  0  0  0  0  0  0  0  0  0  0  0
   27.8705    2.1506  -14.2376 C   0  0  0  0  0  0  0  0  0  0  0  0
   30.4302    5.1116  -11.1256 N   0  0  0  0  0  0  0  0  0  0  0  0
   26.1259    1.0556   -9.6817 O   0  0  0  0  0  0  0  0  0  0  0  0
   30.0867    4.8960  -10.2286 H   0  0  0  0  0  0  0  0  0  0  0  0
   33.8930    8.6393  -10.3718 C   0  0  0  0  0  0  0  0  0  0  0  0
   38.6482    9.9266   -9.5294 C   0  0  0  0  0  0  0  0  0  0  0  0
   43.2869    8.6889   -8.1313 N   0  0  0  0  0  0  0  0  0  0  0  0
   38.8782   14.8052  -10.6016 O   0  0  0  0  0  0  0  0  0  0  0  0
   43.2416    7.7284   -7.9202 H   0  0  0  0  0  0  0  0  0  0  0  0
   48.0446    9.9762   -7.2882 C   0  0  0  0  0  0  0  0  0  0  0  0
   52.8955    8.7718   -7.1381 C   0  0  0  0  0  0  0  0  0  0  0  0
   57.0942    8.0280   -4.5262 N   0  0  0  0  0  0  0  0  0  0  0  0
   51.6355    9.6618   -2.3821 O   0  0  0  0  0  0  0  0  0  0  0  0
   56.8461    8.2032   -3.5897 H   0  0  0  0  0  0  0  0  0  0  0  0
   61.9449    6.8235   -4.3761 C   0  0  0  0  0  0  0  0  0  0  0  0
   66.5183    7.0236   -6.3819 C   0  0  0  0  0  0  0  0  0  0  0  0
   69.5025    6.8133  -10.3886 N   0  0  0  0  0  0  0  0  0  0  0  0
   74.0779    7.0134  -12.3961 C   0  0  0  0  0  0  0  0  0  0  0  0
   69.5927    7.8164   -2.5189 O   0  0  0  0  0  0  0  0  0  0  0  0
   73.3728    6.3242  -17.2986 C   0  0  0  0  0  0  0  0  0  0  0  0
   66.4283    6.0206  -14.2514 C   0  0  0  0  0  0  0  0  0  0  0  0
   68.7532    5.6403  -19.0866 C   0  0  0  0  0  0  0  0  0  0  0  0
   77.0621    6.8031  -16.4029 C   0  0  0  0  0  0  0  0  0  0  0  0
   74.2887    2.6495  -16.6358 O   0  0  0  0  0  0  0  0  0  0  0  0
   80.2915    7.1632  -20.2044 O   0  0  0  0  0  0  0  0  0  0  0  0
   80.8643    7.9024  -20.2641 H   0  0  0  0  0  0  0  0  0  0  0  0
   64.8432    4.2141   -1.2481 C   0  0  0  0  0  0  0  0  0  0  0  0
   62.7671    1.2638    2.2129 S   0  0  0  0  0  0  0  0  0  0  0  0
   61.4133    1.1708    2.3037 H   0  0  0  0  0  0  0  0  0  0  0  0
   50.6883    5.8285   -8.1905 C   0  0  0  0  0  0  0  0  0  0  0  0
   48.3490    1.6165   -9.5294 C   0  0  0  0  0  0  0  0  0  0  0  0
   47.2175    3.8361   -5.1944 N   0  0  0  0  0  0  0  0  0  0  0  0
   44.9941   -1.9649   -8.5714 C   0  0  0  0  0  0  0  0  0  0  0  0
   43.8626    0.2546   -4.2364 N   0  0  0  0  0  0  0  0  0  0  0  0
   44.5599    3.9683   -0.9601 C   0  0  0  0  0  0  0  0  0  0  0  0
   47.7979    4.6303   -5.1558 H   0  0  0  0  0  0  0  0  0  0  0  0
   43.1668   -0.3135   -3.8332 H   0  0  0  0  0  0  0  0  0  0  0  0
   29.5984   11.1387  -10.9344 C   0  0  0  0  0  0  0  0  0  0  0  0
   25.4881    9.6167   -8.5270 C   0  0  0  0  0  0  0  0  0  0  0  0
   22.6204    6.0277  -10.5026 C   0  0  0  0  0  0  0  0  0  0  0  0
   17.6395    6.4484  -10.3607 N   0  0  0  0  0  0  0  0  0  0  0  0
   24.7325    2.0204  -12.6187 O   0  0  0  0  0  0  0  0  0  0  0  0
   17.0746    5.7420  -10.7496 H   0  0  0  0  0  0  0  0  0  0  0  0
   17.2238    7.2375   -9.9440 H   0  0  0  0  0  0  0  0  0  0  0  0
   28.2957   -0.8427  -11.8922 C   0  0  0  0  0  0  0  0  0  0  0  0
   32.8281   -2.4434  -13.2707 C   0  0  0  0  0  0  0  0  0  0  0  0
   33.2688   -6.4368  -16.2483 C   0  0  0  0  0  0  0  0  0  0  0  0
   31.1254   -6.4332  -20.7658 C   0  0  0  0  0  0  0  0  0  0  0  0
   27.2798   -9.4875  -21.7089 N   0  0  0  0  0  0  0  0  0  0  0  0
   26.8422   -9.4871  -22.6302 H   0  0  0  0  0  0  0  0  0  0  0  0
   26.9329  -10.1109  -20.9799 H   0  0  0  0  0  0  0  0  0  0  0  0
   26.4954  -10.1105  -21.9012 H   0  0  0  0  0  0  0  0  0  0  0  0
   17.3481  -21.1912   -6.2890 C   0  0  0  0  0  0  0  0  0  0  0  0
   15.8768  -16.7870   -8.1441 N   0  0  0  0  0  0  0  0  0  0  0  0
   13.3251  -19.9334   -3.5997 O   0  0  0  0  0  0  0  0  0  0  0  0
   15.0846  -16.5393   -7.6146 H   0  0  0  0  0  0  0  0  0  0  0  0
   16.7372  -24.9444   -3.0417 C   0  0  0  0  0  0  0  0  0  0  0  0
   16.1976  -25.6975    6.5738 C   0  0  0  0  0  0  0  0  0  0  0  0
   16.5580  -26.6082    1.6703 N   0  0  0  0  0  0  0  0  0  0  0  0
   15.8475  -20.7233    6.9438 O   0  0  0  0  0  0  0  0  0  0  0  0
   16.6270  -27.5876    1.5975 H   0  0  0  0  0  0  0  0  0  0  0  0
   16.0186  -27.3612   11.2832 C   0  0  0  0  0  0  0  0  0  0  0  0
   17.6948  -23.6878   20.0591 C   0  0  0  0  0  0  0  0  0  0  0  0
   17.0071  -26.7200   16.1429 N   0  0  0  0  0  0  0  0  0  0  0  0
   18.2759  -28.3073   21.8817 O   0  0  0  0  0  0  0  0  0  0  0  0
   17.1215  -27.6296   16.5017 H   0  0  0  0  0  0  0  0  0  0  0  0
   18.6833  -23.0467   24.9187 C   0  0  0  0  0  0  0  0  0  0  0  0
   21.9501  -20.1063   22.5349 C   0  0  0  0  0  0  0  0  0  0  0  0
   23.8131  -16.9097   30.3354 C   0  0  0  0  0  0  0  0  0  0  0  0
   21.3626  -20.8836   28.5444 N   0  0  0  0  0  0  0  0  0  0  0  0
   23.3709  -13.4111   26.7903 O   0  0  0  0  0  0  0  0  0  0  0  0
   21.4497  -21.5724   29.2424 H   0  0  0  0  0  0  0  0  0  0  0  0
   26.4911  -14.7483   33.9596 C   0  0  0  0  0  0  0  0  0  0  0  0
   33.3654   -9.7255   38.5242 C   0  0  0  0  0  0  0  0  0  0  0  0
   30.8373  -12.9298   35.6353 N   0  0  0  0  0  0  0  0  0  0  0  0
   36.8779  -12.4027   36.1802 O   0  0  0  0  0  0  0  0  0  0  0  0
   31.5289  -13.4569   35.1737 H   0  0  0  0  0  0  0  0  0  0  0  0
   37.7115   -7.9071   40.1998 C   0  0  0  0  0  0  0  0  0  0  0  0
   47.3698   -7.8857   40.0086 C   0  0  0  0  0  0  0  0  0  0  0  0
   42.5249   -6.7925   39.4292 N   0  0  0  0  0  0  0  0  0  0  0  0
   47.4309  -12.1513   42.6171 O   0  0  0  0  0  0  0  0  0  0  0  0
   42.5129   -5.9527   38.9156 H   0  0  0  0  0  0  0  0  0  0  0  0
   57.0097   -6.8532   37.9459 N   0  0  0  0  0  0  0  0  0  0  0  0
   52.1805   -6.7712   39.2381 C   0  0  0  0  0  0  0  0  0  0  0  0
   57.4013   -7.6765   37.4885 H   0  0  0  0  0  0  0  0  0  0  0  0
   57.6033   -6.0468   38.1397 H   0  0  0  0  0  0  0  0  0  0  0  0
   57.9949   -6.8700   37.6823 H   0  0  0  0  0  0  0  0  0  0  0  0
   52.7520   -2.1587   41.0814 C   0  0  0  0  0  0  0  0  0  0  0  0
   53.3236    2.4537   42.9248 C   0  0  0  0  0  0  0  0  0  0  0  0
   54.1666   -0.5312   36.5705 O   0  0  0  0  0  0  0  0  0  0  0  0
   54.2078   -1.1483   35.8233 H   0  0  0  0  0  0  0  0  0  0  0  0
   38.6140   -9.2671   35.4737 C   0  0  0  0  0  0  0  0  0  0  0  0
   37.4091  -11.9638   31.4386 C   0  0  0  0  0  0  0  0  0  0  0  0
   37.7555  -16.9507   31.5716 C   0  0  0  0  0  0  0  0  0  0  0  0
   34.2408  -19.6381   33.9020 N   0  0  0  0  0  0  0  0  0  0  0  0
   41.6146  -19.2489   29.3753 O   0  0  0  0  0  0  0  0  0  0  0  0
   34.3087  -20.6199   33.9284 H   0  0  0  0  0  0  0  0  0  0  0  0
   33.4810  -19.1854   34.3344 H   0  0  0  0  0  0  0  0  0  0  0  0
   23.2718  -14.0836   37.7272 C   0  0  0  0  0  0  0  0  0  0  0  0
   19.8710  -11.2669   40.0710 C   0  0  0  0  0  0  0  0  0  0  0  0
   18.5723   -6.8237   38.1829 C   0  0  0  0  0  0  0  0  0  0  0  0
   13.7818   -5.3942   38.2178 N   0  0  0  0  0  0  0  0  0  0  0  0
   22.0658   -3.8084   36.2590 O   0  0  0  0  0  0  0  0  0  0  0  0
   13.5266   -4.5191   37.8459 H   0  0  0  0  0  0  0  0  0  0  0  0
   13.0938   -5.9878   38.5966 H   0  0  0  0  0  0  0  0  0  0  0  0
   14.2752  -31.4829   13.5147 C   0  0  0  0  0  0  0  0  0  0  0  0
   13.1773  -31.4087   18.3928 O   0  0  0  0  0  0  0  0  0  0  0  0
   12.8391  -32.2080   18.8260 H   0  0  0  0  0  0  0  0  0  0  0  0
   17.5714  -20.9077   -0.2116 C   0  0  0  0  0  0  0  0  0  0  0  0
   15.9747  -16.6067    1.7744 C   0  0  0  0  0  0  0  0  0  0  0  0
   17.8051  -20.1977    4.7328 N   0  0  0  0  0  0  0  0  0  0  0  0
   15.1873  -13.7124    5.7747 C   0  0  0  0  0  0  0  0  0  0  0  0
   17.0176  -17.3035    8.7331 N   0  0  0  0  0  0  0  0  0  0  0  0
   18.9961  -21.8598    9.2942 C   0  0  0  0  0  0  0  0  0  0  0  0
   18.0482  -20.9312    4.1228 H   0  0  0  0  0  0  0  0  0  0  0  0
   16.9612  -16.9361    9.6447 H   0  0  0  0  0  0  0  0  0  0  0  0
 97 98  1  0  0  0
 97 99  1  0  0  0
 97100  1  0  0  0
 97101  1  0  0  0
 98102  1  0  0  0
 98 93  1  0  0  0
102103  1  0  0  0
102104  1  0  0  0
104105  1  0  0  0
 93 94  1  0  0  0
 93 95  2  0  0  0
 94 92  1  0  0  0
 94 96  1  0  0  0
 92 88  1  0  0  0
 92106  1  0  0  0
 88 89  1  0  0  0
 88 90  2  0  0  0
 89 87  1  0  0  0
 89 91  1  0  0  0
 87 83  1  0  0  0
 87113  1  0  0  0
 83 84  1  0  0  0
 83 85  2  0  0  0
 84 81  1  0  0  0
 84 86  1  0  0  0
 81 77  1  0  0  0
 81 82  1  0  0  0
 77 78  1  0  0  0
 77 79  2  0  0  0
 78 76  1  0  0  0
 78 80  1  0  0  0
 76 72  1  0  0  0
 76120  1  0  0  0
 72 73  1  0  0  0
 72 74  2  0  0  0
 73 71  1  0  0  0
 73 75  1  0  0  0
 71 67  1  0  0  0
 71123  1  0  0  0
106107  1  0  0  0
107108  1  0  0  0
108109  1  0  0  0
108110  2  0  0  0
109111  1  0  0  0
109112  1  0  0  0
113114  1  0  0  0
114115  1  0  0  0
115116  1  0  0  0
115117  2  0  0  0
116118  1  0  0  0
116119  1  0  0  0
120121  1  0  0  0
121122  1  0  0  0
 67 68  1  0  0  0
 67 69  2  0  0  0
 68  1  1  0  0  0
 68 70  1  0  0  0
  1 10  1  0  0  0
  1  2  1  0  0  0
 10 11  1  0  0  0
 10 12  2  0  0  0
 11 14  1  0  0  0
 11 13  1  0  0  0
 14 15  1  0  0  0
 14 59  1  0  0  0
 15 16  1  0  0  0
 15 17  2  0  0  0
 16 19  1  0  0  0
 16 18  1  0  0  0
 19 20  1  0  0  0
 19 52  1  0  0  0
123124  1  0  0  0
124125  1  0  0  0
124126  2  0  0  0
125128  1  0  0  0
125129  1  0  0  0
126127  1  0  0  0
127128  2  0  0  0
127130  1  0  0  0
  2  3  2  0  0  0
  3  4  1  0  0  0
  4  5  2  0  0  0
  5  6  1  0  0  0
  5  8  1  0  0  0
  6  7  2  0  0  0
  7  2  1  0  0  0
  8  9  1  0  0  0
 59 60  1  0  0  0
 60 61  1  0  0  0
 61 62  1  0  0  0
 62 63  1  0  0  0
 63 64  1  0  0  0
 63 65  1  0  0  0
 63 66  1  0  0  0
 20 21  1  0  0  0
 20 22  2  0  0  0
 21 24  1  0  0  0
 21 23  1  0  0  0
 24 25  1  0  0  0
 24 44  1  0  0  0
 25 26  1  0  0  0
 25 27  2  0  0  0
 26 29  1  0  0  0
 26 28  1  0  0  0
 29 30  1  0  0  0
 29 41  1  0  0  0
 30 31  1  0  0  0
 30 33  2  0  0  0
 31 32  1  0  0  0
 31 35  1  0  0  0
 32 37  1  0  0  0
 32 34  1  0  0  0
 37 38  2  0  0  0
 37 39  1  0  0  0
 52 53  1  0  0  0
 53 54  1  0  0  0
 54 55  1  0  0  0
 54 56  2  0  0  0
 55 57  1  0  0  0
 55 58  1  0  0  0
 44 45  1  0  0  0
 45 46  1  0  0  0
 45 47  2  0  0  0
 46 49  1  0  0  0
 46 50  1  0  0  0
 47 48  1  0  0  0
 48 49  2  0  0  0
 48 51  1  0  0  0
 41 42  1  0  0  0
 42 43  1  0  0  0
 39 40  1  0  0  0
 34 36  1  0  0  0
 35 36  1  0  0  0
M  CHG 1  48   1
M  CHG 1  63   1
M  CHG 1  97   1
M  CHG 1 127   1
M  END
> <minimizedAffinity>
-9.16160

$$$$



130133  0  0  0  0  0  0  0  0999 V2000
   20.3163    8.8027    7.3566 C   0  0  0  0  0  0  0  0  0  0  0  0
   15.9422    8.0710    5.0475 C   0  0  0  0  0  0  0  0  0  0  0  0
   15.5090    9.0152    0.1554 C   0  0  0  0  0  0  0  0  0  0  0  0
   11.1349    8.2836   -2.1537 C   0  0  0  0  0  0  0  0  0  0  0  0
    7.1942    6.6078    0.4293 C   0  0  0  0  0  0  0  0  0  0  0  0
    7.6281    5.6644    5.3190 C   0  0  0  0  0  0  0  0  0  0  0  0
   12.0022    6.3960    7.6281 C   0  0  0  0  0  0  0  0  0  0  0  0
    2.8198    5.8761   -1.8800 O   0  0  0  0  0  0  0  0  0  0  0  0
    2.7385    6.0530   -2.7966 H   0  0  0  0  0  0  0  0  0  0  0  0
   23.7428    8.6301    3.7224 C   0  0  0  0  0  0  0  0  0  0  0  0
   28.3454    7.4519    2.1627 N   0  0  0  0  0  0  0  0  0  0  0  0
   21.4750   10.5725   -0.2885 O   0  0  0  0  0  0  0  0  0  0  0  0
   28.7919    7.0695    2.9524 H   0  0  0  0  0  0  0  0  0  0  0  0
   31.7742    7.2790   -1.4729 C   0  0  0  0  0  0  0  0  0  0  0  0
   35.9340    5.2939   -3.4116 C   0  0  0  0  0  0  0  0  0  0  0  0
   40.9227    5.1344   -3.7140 N   0  0  0  0  0  0  0  0  0  0  0  0
   37.5352    8.8210   -0.2503 O   0  0  0  0  0  0  0  0  0  0  0  0
   41.2380    5.8289   -3.0915 H   0  0  0  0  0  0  0  0  0  0  0  0
   45.0826    3.1493   -5.6528 C   0  0  0  0  0  0  0  0  0  0  0  0
   47.4602    0.9429   -9.4550 C   0  0  0  0  0  0  0  0  0  0  0  0
   50.9522   -2.2218  -11.1270 N   0  0  0  0  0  0  0  0  0  0  0  0
   45.3105    2.7915  -13.5738 O   0  0  0  0  0  0  0  0  0  0  0  0
   51.3754   -2.5858  -10.3160 H   0  0  0  0  0  0  0  0  0  0  0  0
   53.3314   -4.4296  -14.9306 C   0  0  0  0  0  0  0  0  0  0  0  0
   55.6341   -8.4250  -16.8643 C   0  0  0  0  0  0  0  0  0  0  0  0
   59.7016  -11.3054  -17.2683 N   0  0  0  0  0  0  0  0  0  0  0  0
   59.0436   -6.2710  -13.9089 O   0  0  0  0  0  0  0  0  0  0  0  0
   60.3729  -10.8813  -16.6863 H   0  0  0  0  0  0  0  0  0  0  0  0
   62.0042  -15.3006  -19.2019 C   0  0  0  0  0  0  0  0  0  0  0  0
   63.6454  -17.8482  -23.1763 C   0  0  0  0  0  0  0  0  0  0  0  0
   67.3417  -20.1964  -25.5902 N   0  0  0  0  0  0  0  0  0  0  0  0
   68.9843  -22.7453  -29.5663 C   0  0  0  0  0  0  0  0  0  0  0  0
   59.6776  -18.2358  -26.1944 O   0  0  0  0  0  0  0  0  0  0  0  0
   73.8028  -23.6776  -28.6072 C   0  0  0  0  0  0  0  0  0  0  0  0
   71.3093  -19.8089  -22.5723 C   0  0  0  0  0  0  0  0  0  0  0  0
   75.8565  -22.0740  -24.3391 C   0  0  0  0  0  0  0  0  0  0  0  0
   72.6806  -25.0936  -31.9803 C   0  0  0  0  0  0  0  0  0  0  0  0
   74.6534  -20.7392  -30.5153 O   0  0  0  0  0  0  0  0  0  0  0  0
   75.9500  -27.9283  -34.4875 O   0  0  0  0  0  0  0  0  0  0  0  0
   75.6900  -28.7683  -34.8113 H   0  0  0  0  0  0  0  0  0  0  0  0
   64.1296  -19.4128  -17.3135 C   0  0  0  0  0  0  0  0  0  0  0  0
   66.9631  -19.1037  -13.2064 S   0  0  0  0  0  0  0  0  0  0  0  0
   67.1561  -17.9006  -12.6023 H   0  0  0  0  0  0  0  0  0  0  0  0
   54.4156   -9.0265  -13.2873 C   0  0  0  0  0  0  0  0  0  0  0  0
   53.4929  -10.2614   -8.5302 C   0  0  0  0  0  0  0  0  0  0  0  0
   58.1964  -10.1726  -10.2239 N   0  0  0  0  0  0  0  0  0  0  0  0
   55.1446  -11.6360   -4.0155 C   0  0  0  0  0  0  0  0  0  0  0  0
   59.8480  -11.5472   -5.7092 N   0  0  0  0  0  0  0  0  0  0  0  0
   63.0967  -10.7829   -9.4339 C   0  0  0  0  0  0  0  0  0  0  0  0
   58.1218   -9.9066  -11.1688 H   0  0  0  0  0  0  0  0  0  0  0  0
   60.4019  -11.8041   -4.9368 H   0  0  0  0  0  0  0  0  0  0  0  0
   46.3683    4.6071   -1.0453 C   0  0  0  0  0  0  0  0  0  0  0  0
   42.8405    5.3094    2.4285 C   0  0  0  0  0  0  0  0  0  0  0  0
   38.0803    4.1516    1.4250 C   0  0  0  0  0  0  0  0  0  0  0  0
   37.0219    0.7725   -2.1061 N   0  0  0  0  0  0  0  0  0  0  0  0
   34.3806    6.3717    3.9510 O   0  0  0  0  0  0  0  0  0  0  0  0
   36.0849    0.5444   -2.3040 H   0  0  0  0  0  0  0  0  0  0  0  0
   37.7505    0.3355   -2.6034 H   0  0  0  0  0  0  0  0  0  0  0  0
   34.9622    3.6881   -0.0771 C   0  0  0  0  0  0  0  0  0  0  0  0
   36.5774    3.4805    4.6509 C   0  0  0  0  0  0  0  0  0  0  0  0
   41.3741    2.4410    5.6092 C   0  0  0  0  0  0  0  0  0  0  0  0
   42.5491   -0.9087    9.1307 C   0  0  0  0  0  0  0  0  0  0  0  0
   45.3760   -4.8669    7.9697 N   0  0  0  0  0  0  0  0  0  0  0  0
   45.6159   -5.5505    8.6877 H   0  0  0  0  0  0  0  0  0  0  0  0
   45.7127   -4.9908    7.0149 H   0  0  0  0  0  0  0  0  0  0  0  0
   45.9526   -5.6743    7.7329 H   0  0  0  0  0  0  0  0  0  0  0  0
   20.5585    9.6026   16.9805 C   0  0  0  0  0  0  0  0  0  0  0  0
   19.1524    9.3542   12.1884 N   0  0  0  0  0  0  0  0  0  0  0  0
   15.5936   10.1880   17.0568 O   0  0  0  0  0  0  0  0  0  0  0  0
   18.1748    9.4694   12.2034 H   0  0  0  0  0  0  0  0  0  0  0  0
   19.3947   10.1541   21.8122 C   0  0  0  0  0  0  0  0  0  0  0  0
   23.0940    6.9665   30.1472 C   0  0  0  0  0  0  0  0  0  0  0  0
   20.3912    9.2804   26.6339 N   0  0  0  0  0  0  0  0  0  0  0  0
   26.3909    4.1836   27.6197 O   0  0  0  0  0  0  0  0  0  0  0  0
   19.7420    9.8284   27.1315 H   0  0  0  0  0  0  0  0  0  0  0  0
   24.0894    6.0937   34.9665 C   0  0  0  0  0  0  0  0  0  0  0  0
   31.9525    4.0416   40.1896 C   0  0  0  0  0  0  0  0  0  0  0  0
   27.4022    5.4347   38.6537 N   0  0  0  0  0  0  0  0  0  0  0  0
   29.5618    5.4596   44.3457 O   0  0  0  0  0  0  0  0  0  0  0  0
   26.9315    5.7139   39.4720 H   0  0  0  0  0  0  0  0  0  0  0  0
   35.2653    3.3826   43.8768 C   0  0  0  0  0  0  0  0  0  0  0  0
   36.8277    0.3952   40.1843 C   0  0  0  0  0  0  0  0  0  0  0  0
   44.2918    0.2617   45.3260 C   0  0  0  0  0  0  0  0  0  0  0  0
   39.3867    1.1773   45.6526 N   0  0  0  0  0  0  0  0  0  0  0  0
   45.8055    2.7535   41.2637 O   0  0  0  0  0  0  0  0  0  0  0  0
   39.0887    0.6867   46.4525 H   0  0  0  0  0  0  0  0  0  0  0  0
   48.4108   -1.9428   47.1015 C   0  0  0  0  0  0  0  0  0  0  0  0
   57.8012    0.3015   47.4224 C   0  0  0  0  0  0  0  0  0  0  0  0
   53.3195   -1.8263   48.0477 N   0  0  0  0  0  0  0  0  0  0  0  0
   58.6262   -3.5844   50.4585 O   0  0  0  0  0  0  0  0  0  0  0  0
   53.4819   -2.5915   48.6455 H   0  0  0  0  0  0  0  0  0  0  0  0
   62.7098    0.4179   48.3686 C   0  0  0  0  0  0  0  0  0  0  0  0
   70.4679   -5.0977   46.7226 C   0  0  0  0  0  0  0  0  0  0  0  0
   67.3305   -1.2808   47.4927 N   0  0  0  0  0  0  0  0  0  0  0  0
   67.6018   -9.1900   46.9269 O   0  0  0  0  0  0  0  0  0  0  0  0
   67.8948   -0.4751   47.4525 H   0  0  0  0  0  0  0  0  0  0  0  0
   79.2126   -9.5934   45.4707 N   0  0  0  0  0  0  0  0  0  0  0  0
   75.0865   -6.7949   45.8472 C   0  0  0  0  0  0  0  0  0  0  0  0
   79.2002  -10.5646   45.7818 H   0  0  0  0  0  0  0  0  0  0  0  0
   80.0668   -9.1930   45.0829 H   0  0  0  0  0  0  0  0  0  0  0  0
   80.0544  -10.1643   45.3940 H   0  0  0  0  0  0  0  0  0  0  0  0
   77.5390   -2.9127   43.8690 C   0  0  0  0  0  0  0  0  0  0  0  0
   79.9915    0.9695   41.8908 C   0  0  0  0  0  0  0  0  0  0  0  0
   74.8576    0.2213   46.6949 O   0  0  0  0  0  0  0  0  0  0  0  0
   74.1854   -0.1269   47.3014 H   0  0  0  0  0  0  0  0  0  0  0  0
   62.1534   -3.0890   44.8484 C   0  0  0  0  0  0  0  0  0  0  0  0
   63.3283   -4.9359   40.3523 C   0  0  0  0  0  0  0  0  0  0  0  0
   61.8521   -2.5555   36.2098 C   0  0  0  0  0  0  0  0  0  0  0  0
   61.4003   -5.0689   31.9104 N   0  0  0  0  0  0  0  0  0  0  0  0
   60.8281    2.3359   36.3666 O   0  0  0  0  0  0  0  0  0  0  0  0
   61.1097   -4.6005   31.0947 H   0  0  0  0  0  0  0  0  0  0  0  0
   61.6020   -6.0320   31.8797 H   0  0  0  0  0  0  0  0  0  0  0  0
   46.8900   -6.4278   48.7051 C   0  0  0  0  0  0  0  0  0  0  0  0
   44.5749  -10.7756   47.8507 C   0  0  0  0  0  0  0  0  0  0  0  0
   42.1015  -11.4931   43.5657 C   0  0  0  0  0  0  0  0  0  0  0  0
   40.5512  -16.0769   42.3093 N   0  0  0  0  0  0  0  0  0  0  0  0
   41.1778   -7.6248   40.5356 O   0  0  0  0  0  0  0  0  0  0  0  0
   40.0642  -16.2177   41.4653 H   0  0  0  0  0  0  0  0  0  0  0  0
   40.7330  -16.8387   42.9058 H   0  0  0  0  0  0  0  0  0  0  0  0
   21.3298    5.3387   39.0680 C   0  0  0  0  0  0  0  0  0  0  0  0
   19.4427    0.8046   40.0098 O   0  0  0  0  0  0  0  0  0  0  0  0
   18.9074    0.6577   40.8053 H   0  0  0  0  0  0  0  0  0  0  0  0
   23.5683    7.4008   21.7927 C   0  0  0  0  0  0  0  0  0  0  0  0
   26.6421    4.1805   24.0675 C   0  0  0  0  0  0  0  0  0  0  0  0
   22.0072    4.8682   25.8120 N   0  0  0  0  0  0  0  0  0  0  0  0
   27.5167    0.8589   27.7008 C   0  0  0  0  0  0  0  0  0  0  0  0
   22.8819    1.5467   29.4453 N   0  0  0  0  0  0  0  0  0  0  0  0
   18.4317    3.8030   29.1389 C   0  0  0  0  0  0  0  0  0  0  0  0
   21.6046    5.5350   25.2099 H   0  0  0  0  0  0  0  0  0  0  0  0
   22.8120    0.9500   30.2253 H   0  0  0  0  0  0  0  0  0  0  0  0
 97 98  1  0  0  0
 97 99  1  0  0  0
 97100  1  0  0  0
 97101  1  0  0  0
 98102  1  0  0  0
 98 93  1  0  0  0
102103  1  0  0  0
102104  1  0  0  0
104105  1  0  0  0
 93 94  1  0  0  0
 93 95  2  0  0  0
 94 92  1  0  0  0
 94 96  1  0  0  0
 92 88  1  0  0  0
 92106  1  0  0  0
 88 89  1  0  0  0
 88 90  2  0  0  0
 89 87  1  0  0  0
 89 91  1  0  0  0
 87 83  1  0  0  0
 87113  1  0  0  0
 83 84  1  0  0  0
 83 85  2  0  0  0
 84 81  1  0  0  0
 84 86  1  0  0  0
 81 77  1  0  0  0
 81 82  1  0  0  0
 77 78  1  0  0  0
 77 79  2  0  0  0
 78 76  1  0  0  0
 78 80  1  0  0  0
 76 72  1  0  0  0
 76120  1  0  0  0
 72 73  1  0  0  0
 72 74  2  0  0  0
 73 71  1  0  0  0
 73 75  1  0  0  0
 71 67  1  0  0  0
 71123  1  0  0  0
106107  1  0  0  0
107108  1  0  0  0
108109  1  0  0  0
108110  2  0  0  0
109111  1  0  0  0
109112  1  0  0  0
113114  1  0  0  0
114115  1  0  0  0
115116  1  0  0  0
115117  2  0  0  0
116118  1  0  0  0
116119  1  0  0  0
120121  1  0  0  0
121122  1  0  0  0
 67 68  1  0  0  0
 67 69  2  0  0  0
 68  1  1  0  0  0
 68 70  1  0  0  0
  1 10  1  0  0  0
  1  2  1  0  0  0
 10 11  1  0  0  0
 10 12  2  0  0  0
 11 14  1  0  0  0
 11 13  1  0  0  0
 14 15  1  0  0  0
 14 59  1  0  0  0
 15 16  1  0  0  0
 15 17  2  0  0  0
 16 19  1  0  0  0
 16 18  1  0  0  0
 19 20  1  0  0  0
 19 52  1  0  0  0
123124  1  0  0  0
124125  1  0  0  0
124126  2  0  0  0
125128  1  0  0  0
125129  1  0  0  0
126127  1  0  0  0
127128  2  0  0  0
127130  1  0  0  0
  2  3  2  0  0  0
  3  4  1  0  0  0
  4  5  2  0  0  0
  5  6  1  0  0  0
  5  8  1  0  0  0
  6  7  2  0  0  0
  7  2  1  0  0  0
  8  9  1  0  0  0
 59 60  1  0  0  0
 60 61  1  0  0  0
 61 62  1  0  0  0
 62 63  1  0  0  0
 63 64  1  0  0  0
 63 65  1  0  0  0
 63 66  1  0  0  0
 20 21  1  0  0  0
 20 22  2  0  0  0
 21 24  1  0  0  0
 21 23  1  0  0  0
 24 25  1  0  0  0
 24 44  1  0  0  0
 25 26  1  0  0  0
 25 27  2  0  0  0
 26 29  1  0  0  0
 26 28  1  0  0  0
 29 30  1  0  0  0
 29 41  1  0  0  0
 30 31  1  0  0  0
 30 33  2  0  0  0
 31 32  1  0  0  0
 31 35  1  0  0  0
 32 37  1  0  0  0
 32 34  1  0  0  0
 37 38  2  0  0  0
 37 39  1  0  0  0
 52 53  1  0  0  0
 53 54  1  0  0  0
 54 55  1  0  0  0
 54 56  2  0  0  0
 55 57  1  0  0  0
 55 58  1  0  0  0
 44 45  1  0  0  0
 45 46  1  0  0  0
 45 47  2  0  0  0
 46 49  1  0  0  0
 46 50  1  0  0  0
 47 48  1  0  0  0
 48 49  2  0  0  0
 48 51  1  0  0  0
 41 42  1  0  0  0
 42 43  1  0  0  0
 39 40  1  0  0  0
 34 36  1  0  0  0
 35 36  1  0  0  0
M  CHG 1  48   1
M  CHG 1  63   1
M  CHG 1  97   1
M  CHG 1 127   1
M  END
> <minimizedAffinity>
-9.05310

$$$$



130133  0  0  0  0  0  0  0  0999 V2000
   17.1854  -15.0064   -9.3387 C   0  0  0  0  0  0  0  0  0  0  0  0
   16.6925  -18.0742  -13.2560 C   0  0  0  0  0  0  0  0  0  0  0  0
   13.5834  -16.8839  -16.9881 C   0  0  0  0  0  0  0  0  0  0  0  0
   13.0905  -19.9517  -20.9054 C   0  0  0  0  0  0  0  0  0  0  0  0
   15.7068  -24.2097  -21.0906 C   0  0  0  0  0  0  0  0  0  0  0  0
   18.8141  -25.3987  -17.3599 C   0  0  0  0  0  0  0  0  0  0  0  0
   19.3070  -22.3308  -13.4426 C   0  0  0  0  0  0  0  0  0  0  0  0
   15.2138  -27.2778  -25.0082 O   0  0  0  0  0  0  0  0  0  0  0  0
   14.6313  -27.0548  -25.7075 H   0  0  0  0  0  0  0  0  0  0  0  0
   17.6315  -10.4397  -11.3196 C   0  0  0  0  0  0  0  0  0  0  0  0
   20.5073   -6.7183  -13.0183 N   0  0  0  0  0  0  0  0  0  0  0  0
   12.9388   -8.8018  -11.8667 O   0  0  0  0  0  0  0  0  0  0  0  0
   21.4312   -7.0408  -12.9106 H   0  0  0  0  0  0  0  0  0  0  0  0
   20.9543   -2.1492  -15.0002 C   0  0  0  0  0  0  0  0  0  0  0  0
   23.8250    1.6734  -16.4665 C   0  0  0  0  0  0  0  0  0  0  0  0
   27.0147    5.3643  -15.3679 N   0  0  0  0  0  0  0  0  0  0  0  0
   24.4411    1.4189  -11.5113 O   0  0  0  0  0  0  0  0  0  0  0  0
   27.1361    5.3142  -14.3922 H   0  0  0  0  0  0  0  0  0  0  0  0
   29.8856    9.1870  -16.8342 C   0  0  0  0  0  0  0  0  0  0  0  0
   33.5243   11.0011  -19.7406 C   0  0  0  0  0  0  0  0  0  0  0  0
   37.5407   10.2550  -22.6243 N   0  0  0  0  0  0  0  0  0  0  0  0
   32.7986   15.9482  -19.7875 O   0  0  0  0  0  0  0  0  0  0  0  0
   37.6836    9.2809  -22.6151 H   0  0  0  0  0  0  0  0  0  0  0  0
   41.1815   12.0693  -25.5323 C   0  0  0  0  0  0  0  0  0  0  0  0
   46.0020   13.1929  -26.2427 C   0  0  0  0  0  0  0  0  0  0  0  0
   50.2251   12.6855  -28.8718 N   0  0  0  0  0  0  0  0  0  0  0  0
   44.8480   10.0419  -29.9493 O   0  0  0  0  0  0  0  0  0  0  0  0
   49.9979   12.0650  -29.6016 H   0  0  0  0  0  0  0  0  0  0  0  0
   55.0455   13.8090  -29.5822 C   0  0  0  0  0  0  0  0  0  0  0  0
   59.3073   15.8312  -27.9309 C   0  0  0  0  0  0  0  0  0  0  0  0
   63.5956   15.4226  -25.3917 N   0  0  0  0  0  0  0  0  0  0  0  0
   67.8597   17.4452  -23.7392 C   0  0  0  0  0  0  0  0  0  0  0  0
   59.2605   20.5286  -29.6440 O   0  0  0  0  0  0  0  0  0  0  0  0
   70.1146   13.7952  -21.1703 C   0  0  0  0  0  0  0  0  0  0  0  0
   63.6424   10.7254  -23.6786 C   0  0  0  0  0  0  0  0  0  0  0  0
   67.9408    9.3094  -20.7721 C   0  0  0  0  0  0  0  0  0  0  0  0
   72.1480   17.0366  -21.2000 C   0  0  0  0  0  0  0  0  0  0  0  0
   73.4775   16.8853  -26.0176 O   0  0  0  0  0  0  0  0  0  0  0  0
   76.0707   16.6661  -18.1201 O   0  0  0  0  0  0  0  0  0  0  0  0
   75.9411   16.6829  -17.1922 H   0  0  0  0  0  0  0  0  0  0  0  0
   58.3260   13.1179  -33.2909 C   0  0  0  0  0  0  0  0  0  0  0  0
   63.1997   13.8998  -32.4981 S   0  0  0  0  0  0  0  0  0  0  0  0
   63.6336   14.3007  -31.2731 H   0  0  0  0  0  0  0  0  0  0  0  0
   45.3461   11.6741  -22.7924 C   0  0  0  0  0  0  0  0  0  0  0  0
   45.0572   11.6248  -17.8004 C   0  0  0  0  0  0  0  0  0  0  0  0
   43.7668   15.7340  -20.3397 N   0  0  0  0  0  0  0  0  0  0  0  0
   43.9781   13.9416  -13.5029 C   0  0  0  0  0  0  0  0  0  0  0  0
   42.6877   18.0508  -16.0422 N   0  0  0  0  0  0  0  0  0  0  0  0
   42.1094   20.4521  -20.3910 C   0  0  0  0  0  0  0  0  0  0  0  0
   43.9063   15.5027  -21.2864 H   0  0  0  0  0  0  0  0  0  0  0  0
   42.4167   18.7009  -15.3543 H   0  0  0  0  0  0  0  0  0  0  0  0
   26.9117   11.0851  -13.2901 C   0  0  0  0  0  0  0  0  0  0  0  0
   25.9590    8.4459   -9.1509 C   0  0  0  0  0  0  0  0  0  0  0  0
   23.2069   10.4502   -5.4881 C   0  0  0  0  0  0  0  0  0  0  0  0
   22.7862    8.0881   -1.1005 N   0  0  0  0  0  0  0  0  0  0  0  0
   20.8768   14.8141   -6.2124 O   0  0  0  0  0  0  0  0  0  0  0  0
   22.2445    8.4823   -0.3792 H   0  0  0  0  0  0  0  0  0  0  0  0
   23.2451    7.2288   -0.9581 H   0  0  0  0  0  0  0  0  0  0  0  0
   25.8688   -1.2253  -15.0304 C   0  0  0  0  0  0  0  0  0  0  0  0
   27.9646    1.2736  -11.2398 C   0  0  0  0  0  0  0  0  0  0  0  0
   32.9355    1.7715  -11.0203 C   0  0  0  0  0  0  0  0  0  0  0  0
   35.1258    3.1014   -6.7266 C   0  0  0  0  0  0  0  0  0  0  0  0
   39.0857    0.5507   -5.0471 N   0  0  0  0  0  0  0  0  0  0  0  0
   39.5328    0.8217   -4.1713 H   0  0  0  0  0  0  0  0  0  0  0  0
   39.4463   -0.2405   -5.5804 H   0  0  0  0  0  0  0  0  0  0  0  0
   39.8934    0.0305   -4.7046 H   0  0  0  0  0  0  0  0  0  0  0  0
   19.2746  -20.2171   -1.4773 C   0  0  0  0  0  0  0  0  0  0  0  0
   16.9943  -17.9874   -5.3285 N   0  0  0  0  0  0  0  0  0  0  0  0
   14.4998  -21.6684   -1.1704 O   0  0  0  0  0  0  0  0  0  0  0  0
   16.0541  -18.2732   -5.2681 H   0  0  0  0  0  0  0  0  0  0  0  0
   19.0835  -23.1980    2.5329 C   0  0  0  0  0  0  0  0  0  0  0  0
   18.2251  -22.5072   12.1300 C   0  0  0  0  0  0  0  0  0  0  0  0
   19.4806  -23.8379    7.4763 N   0  0  0  0  0  0  0  0  0  0  0  0
   15.0322  -18.7000   11.5704 O   0  0  0  0  0  0  0  0  0  0  0  0
   20.1092  -24.5875    7.5865 H   0  0  0  0  0  0  0  0  0  0  0  0
   18.6224  -23.1473   17.0707 C   0  0  0  0  0  0  0  0  0  0  0  0
   24.9213  -21.3456   24.1698 C   0  0  0  0  0  0  0  0  0  0  0  0
   20.7914  -21.9939   21.4261 N   0  0  0  0  0  0  0  0  0  0  0  0
   21.1329  -20.3699   27.2835 O   0  0  0  0  0  0  0  0  0  0  0  0
   20.0455  -21.8018   22.0392 H   0  0  0  0  0  0  0  0  0  0  0  0
   27.0903  -20.1922   28.5252 C   0  0  0  0  0  0  0  0  0  0  0  0
   25.7054  -15.8048   26.5675 C   0  0  0  0  0  0  0  0  0  0  0  0
   30.3297  -15.6200   36.3940 C   0  0  0  0  0  0  0  0  0  0  0  0
   28.5424  -16.7679   31.8672 N   0  0  0  0  0  0  0  0  0  0  0  0
   30.9771  -20.0182   38.6831 O   0  0  0  0  0  0  0  0  0  0  0  0
   28.4150  -15.9020   31.4165 H   0  0  0  0  0  0  0  0  0  0  0  0
   31.7810  -12.1969   39.7339 C   0  0  0  0  0  0  0  0  0  0  0  0
   38.5496   -5.3775   40.7345 C   0  0  0  0  0  0  0  0  0  0  0  0
   35.2610   -9.0671   41.4939 N   0  0  0  0  0  0  0  0  0  0  0  0
   38.9195   -6.4588   45.6020 O   0  0  0  0  0  0  0  0  0  0  0  0
   35.3339   -9.2800   42.4524 H   0  0  0  0  0  0  0  0  0  0  0  0
   42.0296   -2.2478   42.4945 C   0  0  0  0  0  0  0  0  0  0  0  0
   42.8240    7.3485   43.2691 C   0  0  0  0  0  0  0  0  0  0  0  0
   43.5845    2.4093   43.4424 N   0  0  0  0  0  0  0  0  0  0  0  0
   38.3505    7.8937   41.1027 O   0  0  0  0  0  0  0  0  0  0  0  0
   44.4653    2.3019   43.8689 H   0  0  0  0  0  0  0  0  0  0  0  0
   45.1122   16.5452   46.1731 N   0  0  0  0  0  0  0  0  0  0  0  0
   44.3787   12.0029   44.2168 C   0  0  0  0  0  0  0  0  0  0  0  0
   44.6091   16.8252   47.0150 H   0  0  0  0  0  0  0  0  0  0  0  0
   45.7648   17.1919   45.7302 H   0  0  0  0  0  0  0  0  0  0  0  0
   45.2618   17.4719   46.5722 H   0  0  0  0  0  0  0  0  0  0  0  0
   47.6497   13.0408   40.5804 C   0  0  0  0  0  0  0  0  0  0  0  0
   50.9207   14.0787   36.9441 C   0  0  0  0  0  0  0  0  0  0  0  0
   49.3389    8.3383   40.7576 O   0  0  0  0  0  0  0  0  0  0  0  0
   48.9532    7.7078   41.3857 H   0  0  0  0  0  0  0  0  0  0  0  0
   38.3103    0.7027   40.9255 C   0  0  0  0  0  0  0  0  0  0  0  0
   35.9660    5.1193   40.9889 C   0  0  0  0  0  0  0  0  0  0  0  0
   31.6228    5.6776   38.5740 C   0  0  0  0  0  0  0  0  0  0  0  0
   31.5452    5.8354   33.5765 N   0  0  0  0  0  0  0  0  0  0  0  0
   27.3597    6.0778   41.1553 O   0  0  0  0  0  0  0  0  0  0  0  0
   30.6903    5.9453   33.1007 H   0  0  0  0  0  0  0  0  0  0  0  0
   32.3847    5.7566   33.0684 H   0  0  0  0  0  0  0  0  0  0  0  0
   27.8641  -11.6270   42.7890 C   0  0  0  0  0  0  0  0  0  0  0  0
   24.0722   -8.8525   44.4965 C   0  0  0  0  0  0  0  0  0  0  0  0
   21.7834   -5.6051   41.4618 C   0  0  0  0  0  0  0  0  0  0  0  0
   24.4809   -2.6879   38.4276 N   0  0  0  0  0  0  0  0  0  0  0  0
   16.7945   -5.2747   41.4613 O   0  0  0  0  0  0  0  0  0  0  0  0
   24.0297   -2.0485   37.8301 H   0  0  0  0  0  0  0  0  0  0  0  0
   25.4633   -2.7528   38.4275 H   0  0  0  0  0  0  0  0  0  0  0  0
   16.3240  -26.0148   20.4621 C   0  0  0  0  0  0  0  0  0  0  0  0
   18.8595  -27.7250   24.4184 O   0  0  0  0  0  0  0  0  0  0  0  0
   18.4141  -28.2813   25.0765 H   0  0  0  0  0  0  0  0  0  0  0  0
   20.2199  -18.6750    4.3359 C   0  0  0  0  0  0  0  0  0  0  0  0
   21.2319  -15.6891    8.2157 C   0  0  0  0  0  0  0  0  0  0  0  0
   24.6598  -16.3952    4.6452 N   0  0  0  0  0  0  0  0  0  0  0  0
   24.3784  -12.6488   10.6354 C   0  0  0  0  0  0  0  0  0  0  0  0
   27.8063  -13.3549    7.0649 N   0  0  0  0  0  0  0  0  0  0  0  0
   29.2009  -15.4865    2.7636 C   0  0  0  0  0  0  0  0  0  0  0  0
   24.2361  -17.0094    4.0030 H   0  0  0  0  0  0  0  0  0  0  0  0
   28.5795  -12.8127    7.3430 H   0  0  0  0  0  0  0  0  0  0  0  0
 97 98  1  0  0  0
 97 99  1  0  0  0
 97100  1  0  0  0
 97101  1  0  0  0
 98102  1  0  0  0
 98 93  1  0  0  0
102103  1  0  0  0
102104  1  0  0  0
104105  1  0  0  0
 93 94  1  0  0  0
 93 95  2  0  0  0
 94 92  1  0  0  0
 94 96  1  0  0  0
 92 88  1  0  0  0
 92106  1  0  0  0
 88 89  1  0  0  0
 88 90  2  0  0  0
 89 87  1  0  0  0
 89 91  1  0  0  0
 87 83  1  0  0  0
 87113  1  0  0  0
 83 84  1  0  0  0
 83 85  2  0  0  0
 84 81  1  0  0  0
 84 86  1  0  0  0
 81 77  1  0  0  0
 81 82  1  0  0  0
 77 78  1  0  0  0
 77 79  2  0  0  0
 78 76  1  0  0  0
 78 80  1  0  0  0
 76 72  1  0  0  0
 76120  1  0  0  0
 72 73  1  0  0  0
 72 74  2  0  0  0
 73 71  1  0  0  0
 73 75  1  0  0  0
 71 67  1  0  0  0
 71123  1  0  0  0
106107  1  0  0  0
107108  1  0  0  0
108109  1  0  0  0
108110  2  0  0  0
109111  1  0  0  0
109112  1  0  0  0
113114  1  0  0  0
114115  1  0  0  0
115116  1  0  0  0
115117  2  0  0  0
116118  1  0  0  0
116119  1  0  0  0
120121  1  0  0  0
121122  1  0  0  0
 67 68  1  0  0  0
 67 69  2  0  0  0
 68  1  1  0  0  0
 68 70  1  0  0  0
  1 10  1  0  0  0
  1  2  1  0  0  0
 10 11  1  0  0  0
 10 12  2  0  0  0
 11 14  1  0  0  0
 11 13  1  0  0  0
 14 15  1  0  0  0
 14 59  1  0  0  0
 15 16  1  0  0  0
 15 17  2  0  0  0
 16 19  1  0  0  0
 16 18  1  0  0  0
 19 20  1  0  0  0
 19 52  1  0  0  0
123124  1  0  0  0
124125  1  0  0  0
124126  2  0  0  0
125128  1  0  0  0
125129  1  0  0  0
126127  1  0  0  0
127128  2  0  0  0
127130  1  0  0  0
  2  3  2  0  0  0
  3  4  1  0  0  0
  4  5  2  0  0  0
  5  6  1  0  0  0
  5  8  1  0  0  0
  6  7  2  0  0  0
  7  2  1  0  0  0
  8  9  1  0  0  0
 59 60  1  0  0  0
 60 61  1  0  0  0
 61 62  1  0  0  0
 62 63  1  0  0  0
 63 64  1  0  0  0
 63 65  1  0  0  0
 63 66  1  0  0  0
 20 21  1  0  0  0
 20 22  2  0  0  0
 21 24  1  0  0  0
 21 23  1  0  0  0
 24 25  1  0  0  0
 24 44  1  0  0  0
 25 26  1  0  0  0
 25 27  2  0  0  0
 26 29  1  0  0  0
 26 28  1  0  0  0
 29 30  1  0  0  0
 29 41  1  0  0  0
 30 31  1  0  0  0
 30 33  2  0  0  0
 31 32  1  0  0  0
 31 35  1  0  0  0
 32 37  1  0  0  0
 32 34  1  0  0  0
 37 38  2  0  0  0
 37 39  1  0  0  0
 52 53  1  0  0  0
 53 54  1  0  0  0
 54 55  1  0  0  0
 54 56  2  0  0  0
 55 57  1  0  0  0
 55 58  1  0  0  0
 44 45  1  0  0  0
 45 46  1  0  0  0
 45 47  2  0  0  0
 46 49  1  0  0  0
 46 50  1  0  0  0
 47 48  1  0  0  0
 48 49  2  0  0  0
 48 51  1  0  0  0
 41 42  1  0  0  0
 42 43  1  0  0  0
 39 40  1  0  0  0
 34 36  1  0  0  0
 35 36  1  0  0  0
M  CHG 1  48   1
M  CHG 1  63   1
M  CHG 1  97   1
M  CHG 1 127   1
M  END
> <minimizedAffinity>
-8.94747

$$$$



130133  0  0  0  0  0  0  0  0999 V2000
   21.2494  -21.4417   -6.3683 C   0  0  0  0  0  0  0  0  0  0  0  0
   16.6881  -20.9643   -8.3599 C   0  0  0  0  0  0  0  0  0  0  0  0
   16.0852  -18.4860  -12.6618 C   0  0  0  0  0  0  0  0  0  0  0  0
   11.5238  -18.0086  -14.6533 C   0  0  0  0  0  0  0  0  0  0  0  0
    7.5656  -20.0096  -12.3429 C   0  0  0  0  0  0  0  0  0  0  0  0
    8.1691  -22.4866   -8.0432 C   0  0  0  0  0  0  0  0  0  0  0  0
   12.7305  -22.9639   -6.0517 C   0  0  0  0  0  0  0  0  0  0  0  0
    3.0039  -19.5322  -14.3347 O   0  0  0  0  0  0  0  0  0  0  0  0
    2.8908  -19.0679  -15.1407 H   0  0  0  0  0  0  0  0  0  0  0  0
   20.6151  -20.6436   -1.4756 C   0  0  0  0  0  0  0  0  0  0  0  0
   19.4199  -22.3481    3.0709 N   0  0  0  0  0  0  0  0  0  0  0  0
   21.6979  -15.8087   -0.8014 O   0  0  0  0  0  0  0  0  0  0  0  0
   19.2067  -23.3001    2.9381 H   0  0  0  0  0  0  0  0  0  0  0  0
   18.7851  -21.5503    7.9663 C   0  0  0  0  0  0  0  0  0  0  0  0
   19.6950  -18.8348   12.0652 C   0  0  0  0  0  0  0  0  0  0  0  0
   18.0289  -16.1129   15.9148 N   0  0  0  0  0  0  0  0  0  0  0  0
   14.7184  -18.8225   11.5833 O   0  0  0  0  0  0  0  0  0  0  0  0
   17.0490  -16.1104   15.8199 H   0  0  0  0  0  0  0  0  0  0  0  0
   18.9388  -13.3973   20.0139 C   0  0  0  0  0  0  0  0  0  0  0  0
   22.1758  -11.4643   23.2946 C   0  0  0  0  0  0  0  0  0  0  0  0
   23.0846   -9.1826   27.6504 N   0  0  0  0  0  0  0  0  0  0  0  0
   26.6764  -12.1358   21.2219 O   0  0  0  0  0  0  0  0  0  0  0  0
   22.1985   -9.0504   28.0585 H   0  0  0  0  0  0  0  0  0  0  0  0
   26.3228   -7.2485   30.9332 C   0  0  0  0  0  0  0  0  0  0  0  0
   30.6477   -4.9318   31.8986 C   0  0  0  0  0  0  0  0  0  0  0  0
   33.8854   -1.2382   30.9614 N   0  0  0  0  0  0  0  0  0  0  0  0
   28.5474   -2.2718   28.2227 O   0  0  0  0  0  0  0  0  0  0  0  0
   33.4719   -0.7144   30.2376 H   0  0  0  0  0  0  0  0  0  0  0  0
   38.2103    1.0785   31.9268 C   0  0  0  0  0  0  0  0  0  0  0  0
   41.7393    2.4778   35.1776 C   0  0  0  0  0  0  0  0  0  0  0  0
   43.8387    5.9993   38.0403 N   0  0  0  0  0  0  0  0  0  0  0  0
   47.3692    7.3998   41.2927 C   0  0  0  0  0  0  0  0  0  0  0  0
   44.5041   -1.6200   35.9304 O   0  0  0  0  0  0  0  0  0  0  0  0
   46.4326   12.2229   42.2241 C   0  0  0  0  0  0  0  0  0  0  0  0
   41.0741   10.0968   37.2875 C   0  0  0  0  0  0  0  0  0  0  0  0
   42.5807   14.4971   39.9888 C   0  0  0  0  0  0  0  0  0  0  0  0
   49.4687   10.9213   44.1554 C   0  0  0  0  0  0  0  0  0  0  0  0
   48.8509   13.0830   39.6895 O   0  0  0  0  0  0  0  0  0  0  0  0
   51.5606   13.9980   47.4974 O   0  0  0  0  0  0  0  0  0  0  0  0
   51.7246   13.6997   48.3704 H   0  0  0  0  0  0  0  0  0  0  0  0
   41.5704    3.5734   29.1920 C   0  0  0  0  0  0  0  0  0  0  0  0
   44.6306    1.0918   26.1148 S   0  0  0  0  0  0  0  0  0  0  0  0
   44.5493   -0.2626   26.0214 H   0  0  0  0  0  0  0  0  0  0  0  0
   30.0993   -5.5077   28.1557 C   0  0  0  0  0  0  0  0  0  0  0  0
   32.3151   -8.4849   24.8043 C   0  0  0  0  0  0  0  0  0  0  0  0
   27.7545   -9.6081   26.5184 N   0  0  0  0  0  0  0  0  0  0  0  0
   32.2393  -12.5717   21.9245 C   0  0  0  0  0  0  0  0  0  0  0  0
   27.6786  -13.6949   23.6386 N   0  0  0  0  0  0  0  0  0  0  0  0
   23.7657  -12.6243   26.5635 C   0  0  0  0  0  0  0  0  0  0  0  0
   27.5366   -8.8881   27.1534 H   0  0  0  0  0  0  0  0  0  0  0  0
   27.4318  -14.5294   23.1782 H   0  0  0  0  0  0  0  0  0  0  0  0
   13.9690  -13.2940   19.4682 C   0  0  0  0  0  0  0  0  0  0  0  0
   11.9620  -13.0734   14.8933 C   0  0  0  0  0  0  0  0  0  0  0  0
    9.8168   -8.8437   13.3074 C   0  0  0  0  0  0  0  0  0  0  0  0
   10.8965   -4.5035   15.5444 N   0  0  0  0  0  0  0  0  0  0  0  0
    6.5938   -8.9541    9.4867 O   0  0  0  0  0  0  0  0  0  0  0  0
   10.4744   -3.6706   15.2324 H   0  0  0  0  0  0  0  0  0  0  0  0
   11.5312   -4.4820   16.2967 H   0  0  0  0  0  0  0  0  0  0  0  0
   21.4409  -17.4320    8.9627 C   0  0  0  0  0  0  0  0  0  0  0  0
   24.3162  -15.3941    5.4151 C   0  0  0  0  0  0  0  0  0  0  0  0
   26.9037  -18.3312    2.3031 C   0  0  0  0  0  0  0  0  0  0  0  0
   31.6166  -17.1652    1.1069 C   0  0  0  0  0  0  0  0  0  0  0  0
   34.5574  -20.5729   -1.0719 N   0  0  0  0  0  0  0  0  0  0  0  0
   35.5188  -20.3354   -1.3160 H   0  0  0  0  0  0  0  0  0  0  0  0
   34.1957  -21.5053   -1.2721 H   0  0  0  0  0  0  0  0  0  0  0  0
   35.1571  -21.2679   -1.5162 H   0  0  0  0  0  0  0  0  0  0  0  0
   26.6579  -25.8317  -13.0612 C   0  0  0  0  0  0  0  0  0  0  0  0
   24.2457  -22.4874  -10.2327 N   0  0  0  0  0  0  0  0  0  0  0  0
   27.7861  -21.3908  -15.0623 O   0  0  0  0  0  0  0  0  0  0  0  0
   24.4678  -21.6129  -10.6267 H   0  0  0  0  0  0  0  0  0  0  0  0
   29.6542  -26.8774  -16.9255 C   0  0  0  0  0  0  0  0  0  0  0  0
   36.4967  -22.1488  -21.8386 C   0  0  0  0  0  0  0  0  0  0  0  0
   33.4627  -25.6269  -19.9148 N   0  0  0  0  0  0  0  0  0  0  0  0
   35.0003  -17.8446  -19.7802 O   0  0  0  0  0  0  0  0  0  0  0  0
   33.7574  -26.4744  -20.3201 H   0  0  0  0  0  0  0  0  0  0  0  0
   40.3033  -20.8997  -24.8265 C   0  0  0  0  0  0  0  0  0  0  0  0
   47.1731  -14.1120  -25.0531 C   0  0  0  0  0  0  0  0  0  0  0  0
   43.8174  -17.6289  -26.2255 N   0  0  0  0  0  0  0  0  0  0  0  0
   47.4789  -14.5873  -30.0209 O   0  0  0  0  0  0  0  0  0  0  0  0
   43.8776  -17.7224  -27.2037 H   0  0  0  0  0  0  0  0  0  0  0  0
   50.6872  -10.8411  -26.4521 C   0  0  0  0  0  0  0  0  0  0  0  0
   50.4814  -10.4673  -21.4703 C   0  0  0  0  0  0  0  0  0  0  0  0
   56.8928   -3.4387  -26.5632 C   0  0  0  0  0  0  0  0  0  0  0  0
   54.0947   -7.3768  -25.2725 N   0  0  0  0  0  0  0  0  0  0  0  0
   55.7155   -2.5233  -31.3359 O   0  0  0  0  0  0  0  0  0  0  0  0
   54.3265   -7.5570  -24.3328 H   0  0  0  0  0  0  0  0  0  0  0  0
   60.2986    0.0236  -25.3836 C   0  0  0  0  0  0  0  0  0  0  0  0
   64.3947    7.7311  -21.2439 C   0  0  0  0  0  0  0  0  0  0  0  0
   62.1404    3.3596  -22.1459 N   0  0  0  0  0  0  0  0  0  0  0  0
   63.5979    5.7308  -16.7314 O   0  0  0  0  0  0  0  0  0  0  0  0
   61.9836    2.9658  -21.2573 H   0  0  0  0  0  0  0  0  0  0  0  0
   66.2364   11.0670  -18.0063 C   0  0  0  0  0  0  0  0  0  0  0  0
   72.4316   10.9499  -10.5951 C   0  0  0  0  0  0  0  0  0  0  0  0
   69.5227   12.2812  -14.4383 N   0  0  0  0  0  0  0  0  0  0  0  0
   71.7024    6.0318  -10.0632 O   0  0  0  0  0  0  0  0  0  0  0  0
   69.6663   13.2496  -14.5430 H   0  0  0  0  0  0  0  0  0  0  0  0
   79.6236   13.9390   -4.4642 N   0  0  0  0  0  0  0  0  0  0  0  0
   75.7161   12.1641   -7.0292 C   0  0  0  0  0  0  0  0  0  0  0  0
   80.3555   14.4610   -4.9461 H   0  0  0  0  0  0  0  0  0  0  0  0
   79.6890   13.7791   -3.4589 H   0  0  0  0  0  0  0  0  0  0  0  0
   80.4208   14.3011   -3.9409 H   0  0  0  0  0  0  0  0  0  0  0  0
   73.8298   10.2342   -2.8200 C   0  0  0  0  0  0  0  0  0  0  0  0
   71.9434    8.3042    1.3890 C   0  0  0  0  0  0  0  0  0  0  0  0
   73.9118    5.6761   -4.8732 O   0  0  0  0  0  0  0  0  0  0  0  0
   74.2367    5.5582   -5.7795 H   0  0  0  0  0  0  0  0  0  0  0  0
   69.0271    6.9676  -17.3682 C   0  0  0  0  0  0  0  0  0  0  0  0
   70.1858    2.8872  -14.7200 C   0  0  0  0  0  0  0  0  0  0  0  0
   69.8495    2.9674   -9.7313 C   0  0  0  0  0  0  0  0  0  0  0  0
   71.5314    6.9238   -7.1771 N   0  0  0  0  0  0  0  0  0  0  0  0
   67.8325   -0.9068   -7.2982 O   0  0  0  0  0  0  0  0  0  0  0  0
   71.4653    6.9400   -6.1949 H   0  0  0  0  0  0  0  0  0  0  0  0
   71.9285    7.6866   -7.6564 H   0  0  0  0  0  0  0  0  0  0  0  0
   63.3230    0.2711  -29.3574 C   0  0  0  0  0  0  0  0  0  0  0  0
   67.6296   -0.9156  -31.6019 C   0  0  0  0  0  0  0  0  0  0  0  0
   71.9595    0.7727  -29.7591 C   0  0  0  0  0  0  0  0  0  0  0  0
   76.2730   -0.4962  -31.9446 N   0  0  0  0  0  0  0  0  0  0  0  0
   71.9757    3.7314  -25.7288 O   0  0  0  0  0  0  0  0  0  0  0  0
   77.1254   -0.1635  -31.5813 H   0  0  0  0  0  0  0  0  0  0  0  0
   76.2700   -1.0788  -32.7382 H   0  0  0  0  0  0  0  0  0  0  0  0
   42.6924  -23.1097  -28.6232 C   0  0  0  0  0  0  0  0  0  0  0  0
   44.8582  -20.3284  -32.1700 O   0  0  0  0  0  0  0  0  0  0  0  0
   45.3217  -20.7567  -32.9067 H   0  0  0  0  0  0  0  0  0  0  0  0
   31.2235  -22.4413  -15.2348 C   0  0  0  0  0  0  0  0  0  0  0  0
   33.2958  -19.6686  -11.6278 C   0  0  0  0  0  0  0  0  0  0  0  0
   33.9017  -24.6315  -11.6243 N   0  0  0  0  0  0  0  0  0  0  0  0
   36.0383  -19.3308   -7.4609 C   0  0  0  0  0  0  0  0  0  0  0  0
   36.6442  -24.2937   -7.4573 N   0  0  0  0  0  0  0  0  0  0  0  0
   35.7975  -28.7595   -9.5379 C   0  0  0  0  0  0  0  0  0  0  0  0
   33.4110  -24.9488  -12.4166 H   0  0  0  0  0  0  0  0  0  0  0  0
   37.1967  -24.4825   -6.6647 H   0  0  0  0  0  0  0  0  0  0  0  0
 97 98  1  0  0  0
 97 99  1  0  0  0
 97100  1  0  0  0
 97101  1  0  0  0
 98102  1  0  0  0
 98 93  1  0  0  0
102103  1  0  0  0
102104  1  0  0  0
104105  1  0  0  0
 93 94  1  0  0  0
 93 95  2  0  0  0
 94 92  1  0  0  0
 94 96  1  0  0  0
 92 88  1  0  0  0
 92106  1  0  0  0
 88 89  1  0  0  0
 88 90  2  0  0  0
 89 87  1  0  0  0
 89 91  1  0  0  0
 87 83  1  0  0  0
 87113  1  0  0  0
 83 84  1  0  0  0
 83 85  2  0  0  0
 84 81  1  0  0  0
 84 86  1  0  0  0
 81 77  1  0  0  0
 81 82  1  0  0  0
 77 78  1  0  0  0
 77 79  2  0  0  0
 78 76  1  0  0  0
 78 80  1  0  0  0
 76 72  1  0  0  0
 76120  1  0  0  0
 72 73  1  0  0  0
 72 74  2  0  0  0
 73 71  1  0  0  0
 73 75  1  0  0  0
 71 67  1  0  0  0
 71123  1  0  0  0
106107  1  0  0  0
107108  1  0  0  0
108109  1  0  0  0
108110  2  0  0  0
109111  1  0  0  0
109112  1  0  0  0
113114  1  0  0  0
114115  1  0  0  0
115116  1  0  0  0
115117  2  0  0  0
116118  1  0  0  0
116119  1  0  0  0
120121  1  0  0  0
121122  1  0  0  0
 67 68  1  0  0  0
 67 69  2  0  0  0
 68  1  1  0  0  0
 68 70  1  0  0  0
  1 10  1  0  0  0
  1  2  1  0  0  0
 10 11  1  0  0  0
 10 12  2  0  0  0
 11 14  1  0  0  0
 11 13  1  0  0  0
 14 15  1  0  0  0
 14 59  1  0  0  0
 15 16  1  0  0  0
 15 17  2  0  0  0
 16 19  1  0  0  0
 16 18  1  0  0  0
 19 20  1  0  0  0
 19 52  1  0  0  0
123124  1  0  0  0
124125  1  0  0  0
124126  2  0  0  0
125128  1  0  0  0
125129  1  0  0  0
126127  1  0  0  0
127128  2  0  0  0
127130  1  0  0  0
  2  3  2  0  0  0
  3  4  1  0  0  0
  4  5  2  0  0  0
  5  6  1  0  0  0
  5  8  1  0  0  0
  6  7  2  0  0  0
  7  2  1  0  0  0
  8  9  1  0  0  0
 59 60  1  0  0  0
 60 61  1  0  0  0
 61 62  1  0  0  0
 62 63  1  0  0  0
 63 64  1  0  0  0
 63 65  1  0  0  0
 63 66  1  0  0  0
 20 21  1  0  0  0
 20 22  2  0  0  0
 21 24  1  0  0  0
 21 23  1  0  0  0
 24 25  1  0  0  0
 24 44  1  0  0  0
 25 26  1  0  0  0
 25 27  2  0  0  0
 26 29  1  0  0  0
 26 28  1  0  0  0
 29 30  1  0  0  0
 29 41  1  0  0  0
 30 31  1  0  0  0
 30 33  2  0  0  0
 31 32  1  0  0  0
 31 35  1  0  0  0
 32 37  1  0  0  0
 32 34  1  0  0  0
 37 38  2  0  0  0
 37 39  1  0  0  0
 52 53  1  0  0  0
 53 54  1  0  0  0
 54 55  1  0  0  0
 54 56  2  0  0  0
 55 57  1  0  0  0
 55 58  1  0  0  0
 44 45  1  0  0  0
 45 46  1  0  0  0
 45 47  2  0  0  0
 46 49  1  0  0  0
 46 50  1  0  0  0
 47 48  1  0  0  0
 48 49  2  0  0  0
 48 51  1  0  0  0
 41 42  1  0  0  0
 42 43  1  0  0  0
 39 40  1  0  0  0
 34 36  1  0  0  0
 35 36  1  0  0  0
M  CHG 1  48   1
M  CHG 1  63   1
M  CHG 1  97   1
M  CHG 1 127   1
M  END
> <minimizedAffinity>
-8.90644

$$$$



130133  0  0  0  0  0  0  0  0999 V2000
   21.2479  -21.7899   -6.2869 C   0  0  0  0  0  0  0  0  0  0  0  0
   16.7015  -21.2225   -8.2891 C   0  0  0  0  0  0  0  0  0  0  0  0
   16.1760  -18.8762  -12.6743 C   0  0  0  0  0  0  0  0  0  0  0  0
   11.6296  -18.3088  -14.6765 C   0  0  0  0  0  0  0  0  0  0  0  0
    7.6090  -20.0877  -12.2933 C   0  0  0  0  0  0  0  0  0  0  0  0
    8.1352  -22.4327   -7.9103 C   0  0  0  0  0  0  0  0  0  0  0  0
   12.6816  -23.0001   -5.9081 C   0  0  0  0  0  0  0  0  0  0  0  0
    3.0623  -19.5202  -14.2956 O   0  0  0  0  0  0  0  0  0  0  0  0
    2.9637  -19.0806  -15.1173 H   0  0  0  0  0  0  0  0  0  0  0  0
   20.6338  -20.8971   -1.4080 C   0  0  0  0  0  0  0  0  0  0  0  0
   19.4040  -22.4995    3.1663 N   0  0  0  0  0  0  0  0  0  0  0  0
   21.8225  -16.0766   -0.8143 O   0  0  0  0  0  0  0  0  0  0  0  0
   19.1700  -23.4486    3.0494 H   0  0  0  0  0  0  0  0  0  0  0  0
   18.7894  -21.6069    8.0479 C   0  0  0  0  0  0  0  0  0  0  0  0
   19.6996  -18.8011   12.0855 C   0  0  0  0  0  0  0  0  0  0  0  0
   18.0300  -16.0904   15.9416 N   0  0  0  0  0  0  0  0  0  0  0  0
   14.7154  -18.9851   11.7346 O   0  0  0  0  0  0  0  0  0  0  0  0
   17.0485  -16.1267   15.8725 H   0  0  0  0  0  0  0  0  0  0  0  0
   18.9402  -13.2846   19.9792 C   0  0  0  0  0  0  0  0  0  0  0  0
   22.1598  -11.4079   23.3094 C   0  0  0  0  0  0  0  0  0  0  0  0
   23.0451   -9.1933   27.7044 N   0  0  0  0  0  0  0  0  0  0  0  0
   26.6725  -12.0587   21.2562 O   0  0  0  0  0  0  0  0  0  0  0  0
   22.1566   -9.0652   28.1087 H   0  0  0  0  0  0  0  0  0  0  0  0
   26.2659   -7.3156   31.0367 C   0  0  0  0  0  0  0  0  0  0  0  0
   30.5876   -5.0198   32.0644 C   0  0  0  0  0  0  0  0  0  0  0  0
   33.8341   -1.3145   31.2067 N   0  0  0  0  0  0  0  0  0  0  0  0
   28.5102   -2.2966   28.4219 O   0  0  0  0  0  0  0  0  0  0  0  0
   33.4250   -0.7783   30.4895 H   0  0  0  0  0  0  0  0  0  0  0  0
   38.1557    0.9812   32.2344 C   0  0  0  0  0  0  0  0  0  0  0  0
   43.1107    1.3287   31.6807 C   0  0  0  0  0  0  0  0  0  0  0  0
   47.4826    3.3677   32.9968 N   0  0  0  0  0  0  0  0  0  0  0  0
   52.4401    3.7158   32.4434 C   0  0  0  0  0  0  0  0  0  0  0  0
   44.2420   -1.9386   28.0685 O   0  0  0  0  0  0  0  0  0  0  0  0
   53.8760    7.1632   35.7690 C   0  0  0  0  0  0  0  0  0  0  0  0
   46.3514    6.6348   36.6089 C   0  0  0  0  0  0  0  0  0  0  0  0
   50.4808    9.3745   38.6996 C   0  0  0  0  0  0  0  0  0  0  0  0
   56.8121    5.7549   33.7595 C   0  0  0  0  0  0  0  0  0  0  0  0
   56.7660    1.2633   35.9556 O   0  0  0  0  0  0  0  0  0  0  0  0
   61.0006    8.3123   34.7217 O   0  0  0  0  0  0  0  0  0  0  0  0
   61.1197    9.1691   34.3614 H   0  0  0  0  0  0  0  0  0  0  0  0
   39.4921    4.9238   35.0028 C   0  0  0  0  0  0  0  0  0  0  0  0
   41.2065    9.0672   32.7924 S   0  0  0  0  0  0  0  0  0  0  0  0
   41.3094    9.1222   31.4374 H   0  0  0  0  0  0  0  0  0  0  0  0
   30.0608   -5.5356   28.3096 C   0  0  0  0  0  0  0  0  0  0  0  0
   32.2862   -8.4587   24.9171 C   0  0  0  0  0  0  0  0  0  0  0  0
   27.7072   -9.5909   26.5754 N   0  0  0  0  0  0  0  0  0  0  0  0
   32.2107  -12.4880   21.9576 C   0  0  0  0  0  0  0  0  0  0  0  0
   27.6317  -13.6203   23.6159 N   0  0  0  0  0  0  0  0  0  0  0  0
   23.7027  -12.5862   26.5324 C   0  0  0  0  0  0  0  0  0  0  0  0
   27.4883   -8.8822   27.2228 H   0  0  0  0  0  0  0  0  0  0  0  0
   27.3840  -14.4443   23.1376 H   0  0  0  0  0  0  0  0  0  0  0  0
   14.0044  -12.9448   19.2513 C   0  0  0  0  0  0  0  0  0  0  0  0
   12.1776  -12.6657   14.6047 C   0  0  0  0  0  0  0  0  0  0  0  0
    9.4366   -8.7152   13.2308 C   0  0  0  0  0  0  0  0  0  0  0  0
    9.8563   -4.3967   15.7170 N   0  0  0  0  0  0  0  0  0  0  0  0
    6.2775   -9.0831    9.3730 O   0  0  0  0  0  0  0  0  0  0  0  0
    9.3168   -3.6187   15.4468 H   0  0  0  0  0  0  0  0  0  0  0  0
   10.4784   -4.3244   16.4766 H   0  0  0  0  0  0  0  0  0  0  0  0
   21.4172  -17.4481    8.9453 C   0  0  0  0  0  0  0  0  0  0  0  0
   26.3863  -17.6924    9.4493 C   0  0  0  0  0  0  0  0  0  0  0  0
   29.1675  -13.5860    8.8096 C   0  0  0  0  0  0  0  0  0  0  0  0
   32.7566  -12.4613   12.1045 C   0  0  0  0  0  0  0  0  0  0  0  0
   31.6592  -12.1065   16.9703 N   0  0  0  0  0  0  0  0  0  0  0  0
   32.3910  -11.8771   17.6427 H   0  0  0  0  0  0  0  0  0  0  0  0
   30.7035  -12.2635   17.2904 H   0  0  0  0  0  0  0  0  0  0  0  0
   31.4353  -12.0341   17.9628 H   0  0  0  0  0  0  0  0  0  0  0  0
   26.5337  -26.4297  -12.9089 C   0  0  0  0  0  0  0  0  0  0  0  0
   24.2162  -22.9770  -10.1320 N   0  0  0  0  0  0  0  0  0  0  0  0
   27.7908  -22.0524  -14.9724 O   0  0  0  0  0  0  0  0  0  0  0  0
   24.4637  -22.1151  -10.5383 H   0  0  0  0  0  0  0  0  0  0  0  0
   29.5020  -27.6168  -16.7539 C   0  0  0  0  0  0  0  0  0  0  0  0
   36.4683  -23.1562  -21.7430 C   0  0  0  0  0  0  0  0  0  0  0  0
   33.3486  -26.5205  -19.7549 N   0  0  0  0  0  0  0  0  0  0  0  0
   35.0639  -18.7742  -19.7863 O   0  0  0  0  0  0  0  0  0  0  0  0
   33.6251  -27.3832  -20.1401 H   0  0  0  0  0  0  0  0  0  0  0  0
   40.3130  -22.0612  -24.7426 C   0  0  0  0  0  0  0  0  0  0  0  0
   47.3383  -15.4397  -25.0917 C   0  0  0  0  0  0  0  0  0  0  0  0
   43.9061  -18.9034  -26.1996 N   0  0  0  0  0  0  0  0  0  0  0  0
   47.6491  -16.0308  -30.0468 O   0  0  0  0  0  0  0  0  0  0  0  0
   43.9673  -19.0198  -27.1752 H   0  0  0  0  0  0  0  0  0  0  0  0
   50.9313  -12.2820  -26.5487 C   0  0  0  0  0  0  0  0  0  0  0  0
   50.7181  -11.7944  -21.5771 C   0  0  0  0  0  0  0  0  0  0  0  0
   57.3064   -5.0284  -26.7983 C   0  0  0  0  0  0  0  0  0  0  0  0
   54.4139   -8.8719  -25.4324 N   0  0  0  0  0  0  0  0  0  0  0  0
   56.1659   -4.1911  -31.5942 O   0  0  0  0  0  0  0  0  0  0  0  0
   54.6385   -9.0368  -24.4881 H   0  0  0  0  0  0  0  0  0  0  0  0
   60.7873   -1.6203  -25.6819 C   0  0  0  0  0  0  0  0  0  0  0  0
   65.2014    5.8068  -21.3606 C   0  0  0  0  0  0  0  0  0  0  0  0
   62.9098    1.4817  -22.3839 N   0  0  0  0  0  0  0  0  0  0  0  0
   64.8749    3.4441  -16.9663 O   0  0  0  0  0  0  0  0  0  0  0  0
   62.8455    1.0165  -21.5187 H   0  0  0  0  0  0  0  0  0  0  0  0
   67.3239    8.9087  -18.0627 C   0  0  0  0  0  0  0  0  0  0  0  0
   72.2929    7.7964   -9.8535 C   0  0  0  0  0  0  0  0  0  0  0  0
   69.9609    9.6350  -13.8766 N   0  0  0  0  0  0  0  0  0  0  0  0
   71.7037    2.8410  -10.1683 O   0  0  0  0  0  0  0  0  0  0  0  0
   70.0769   10.6107  -13.8146 H   0  0  0  0  0  0  0  0  0  0  0  0
   77.5083   10.4964   -1.8686 N   0  0  0  0  0  0  0  0  0  0  0  0
   74.9285    8.5230   -5.6697 C   0  0  0  0  0  0  0  0  0  0  0  0
   77.6728   11.5023   -1.8316 H   0  0  0  0  0  0  0  0  0  0  0  0
   77.8702    9.8930   -1.1302 H   0  0  0  0  0  0  0  0  0  0  0  0
   78.0347   10.8990   -1.0932 H   0  0  0  0  0  0  0  0  0  0  0  0
   75.4874    3.9682   -3.6843 C   0  0  0  0  0  0  0  0  0  0  0  0
   76.0463   -0.5865   -1.6990 C   0  0  0  0  0  0  0  0  0  0  0  0
   73.1013    1.9698   -7.5973 O   0  0  0  0  0  0  0  0  0  0  0  0
   72.7759    2.5412   -8.3104 H   0  0  0  0  0  0  0  0  0  0  0  0
   68.3177    4.3187  -16.3468 C   0  0  0  0  0  0  0  0  0  0  0  0
   70.9008    1.2941  -13.3162 C   0  0  0  0  0  0  0  0  0  0  0  0
   68.6674   -0.7629   -9.3428 C   0  0  0  0  0  0  0  0  0  0  0  0
   64.1340    0.8080   -7.9333 N   0  0  0  0  0  0  0  0  0  0  0  0
   70.9662   -4.3888   -6.7804 O   0  0  0  0  0  0  0  0  0  0  0  0
   63.6940    0.4033   -7.1511 H   0  0  0  0  0  0  0  0  0  0  0  0
   63.6815    1.5220   -8.4380 H   0  0  0  0  0  0  0  0  0  0  0  0
   63.4146   -1.0256  -29.8941 C   0  0  0  0  0  0  0  0  0  0  0  0
   67.5692    0.4839  -32.2295 C   0  0  0  0  0  0  0  0  0  0  0  0
   70.9001    3.3291  -29.8205 C   0  0  0  0  0  0  0  0  0  0  0  0
   73.2696    1.5439  -25.7966 N   0  0  0  0  0  0  0  0  0  0  0  0
   71.8619    7.9618  -31.4362 O   0  0  0  0  0  0  0  0  0  0  0  0
   73.9255    2.1046  -25.3225 H   0  0  0  0  0  0  0  0  0  0  0  0
   73.0804    0.6317  -25.4783 H   0  0  0  0  0  0  0  0  0  0  0  0
   42.6639  -24.4090  -28.4800 C   0  0  0  0  0  0  0  0  0  0  0  0
   43.0057  -22.2380  -32.9717 O   0  0  0  0  0  0  0  0  0  0  0  0
   43.4617  -22.6931  -33.6970 H   0  0  0  0  0  0  0  0  0  0  0  0
   31.1990  -23.2053  -15.1231 C   0  0  0  0  0  0  0  0  0  0  0  0
   34.0457  -20.5531  -11.9839 C   0  0  0  0  0  0  0  0  0  0  0  0
   35.0069  -25.4012  -12.7391 N   0  0  0  0  0  0  0  0  0  0  0  0
   37.8874  -20.2881   -8.7949 C   0  0  0  0  0  0  0  0  0  0  0  0
   38.8486  -25.1362   -9.5500 N   0  0  0  0  0  0  0  0  0  0  0  0
   37.7599  -29.4661  -11.7985 C   0  0  0  0  0  0  0  0  0  0  0  0
   34.3253  -25.6987  -13.3841 H   0  0  0  0  0  0  0  0  0  0  0  0
   39.6283  -25.3330   -8.9820 H   0  0  0  0  0  0  0  0  0  0  0  0
 97 98  1  0  0  0
 97 99  1  0  0  0
 97100  1  0  0  0
 97101  1  0  0  0
 98102  1  0  0  0
 98 93  1  0  0  0
102103  1  0  0  0
102104  1  0  0  0
104105  1  0  0  0
 93 94  1  0  0  0
 93 95  2  0  0  0
 94 92  1  0  0  0
 94 96  1  0  0  0
 92 88  1  0  0  0
 92106  1  0  0  0
 88 89  1  0  0  0
 88 90  2  0  0  0
 89 87  1  0  0  0
 89 91  1  0  0  0
 87 83  1  0  0  0
 87113  1  0  0  0
 83 84  1  0  0  0
 83 85  2  0  0  0
 84 81  1  0  0  0
 84 86  1  0  0  0
 81 77  1  0  0  0
 81 82  1  0  0  0
 77 78  1  0  0  0
 77 79  2  0  0  0
 78 76  1  0  0  0
 78 80  1  0  0  0
 76 72  1  0  0  0
 76120  1  0  0  0
 72 73  1  0  0  0
 72 74  2  0  0  0
 73 71  1  0  0  0
 73 75  1  0  0  0
 71 67  1  0  0  0
 71123  1  0  0  0
106107  1  0  0  0
107108  1  0  0  0
108109  1  0  0  0
108110  2  0  0  0
109111  1  0  0  0
109112  1  0  0  0
113114  1  0  0  0
114115  1  0  0  0
115116  1  0  0  0
115117  2  0  0  0
116118  1  0  0  0
116119  1  0  0  0
120121  1  0  0  0
121122  1  0  0  0
 67 68  1  0  0  0
 67 69  2  0  0  0
 68  1  1  0  0  0
 68 70  1  0  0  0
  1 10  1  0  0  0
  1  2  1  0  0  0
 10 11  1  0  0  0
 10 12  2  0  0  0
 11 14  1  0  0  0
 11 13  1  0  0  0
 14 15  1  0  0  0
 14 59  1  0  0  0
 15 16  1  0  0  0
 15 17  2  0  0  0
 16 19  1  0  0  0
 16 18  1  0  0  0
 19 20  1  0  0  0
 19 52  1  0  0  0
123124  1  0  0  0
124125  1  0  0  0
124126  2  0  0  0
125128  1  0  0  0
125129  1  0  0  0
126127  1  0  0  0
127128  2  0  0  0
127130  1  0  0  0
  2  3  2  0  0  0
  3  4  1  0  0  0
  4  5  2  0  0  0
  5  6  1  0  0  0
  5  8  1  0  0  0
  6  7  2  0  0  0
  7  2  1  0  0  0
  8  9  1  0  0  0
 59 60  1  0  0  0
 60 61  1  0  0  0
 61 62  1  0  0  0
 62 63  1  0  0  0
 63 64  1  0  0  0
 63 65  1  0  0  0
 63 66  1  0  0  0
 20 21  1  0  0  0
 20 22  2  0  0  0
 21 24  1  0  0  0
 21 23  1  0  0  0
 24 25  1  0  0  0
 24 44  1  0  0  0
 25 26  1  0  0  0
 25 27  2  0  0  0
 26 29  1  0  0  0
 26 28  1  0  0  0
 29 30  1  0  0  0
 29 41  1  0  0  0
 30 31  1  0  0  0
 30 33  2  0  0  0
 31 32  1  0  0  0
 31 35  1  0  0  0
 32 37  1  0  0  0
 32 34  1  0  0  0
 37 38  2  0  0  0
 37 39  1  0  0  0
 52 53  1  0  0  0
 53 54  1  0  0  0
 54 55  1  0  0  0
 54 56  2  0  0  0
 55 57  1  0  0  0
 55 58  1  0  0  0
 44 45  1  0  0  0
 45 46  1  0  0  0
 45 47  2  0  0  0
 46 49  1  0  0  0
 46 50  1  0  0  0
 47 48  1  0  0  0
 48 49  2  0  0  0
 48 51  1  0  0  0
 41 42  1  0  0  0
 42 43  1  0  0  0
 39 40  1  0  0  0
 34 36  1  0  0  0
 35 36  1  0  0  0
M  CHG 1  48   1
M  CHG 1  63   1
M  CHG 1  97   1
M  CHG 1 127   1
M  END
> <minimizedAffinity>
-8.76100

$$$$



130133  0  0  0  0  0  0  0  0999 V2000
   20.1614    8.9034    7.3577 C   0  0  0  0  0  0  0  0  0  0  0  0
   15.7980    8.1033    5.0511 C   0  0  0  0  0  0  0  0  0  0  0  0
   15.3599    8.9973    0.1501 C   0  0  0  0  0  0  0  0  0  0  0  0
   10.9965    8.1972   -2.1565 C   0  0  0  0  0  0  0  0  0  0  0  0
    7.0713    6.5030    0.4381 C   0  0  0  0  0  0  0  0  0  0  0  0
    7.5100    5.6097    5.3368 C   0  0  0  0  0  0  0  0  0  0  0  0
   11.8735    6.4098    7.6433 C   0  0  0  0  0  0  0  0  0  0  0  0
    2.7075    5.7028   -1.8686 O   0  0  0  0  0  0  0  0  0  0  0  0
    2.6253    5.8703   -2.7869 H   0  0  0  0  0  0  0  0  0  0  0  0
   23.6013    8.6583    3.7403 C   0  0  0  0  0  0  0  0  0  0  0  0
   28.1922    7.4008    2.2082 N   0  0  0  0  0  0  0  0  0  0  0  0
   21.3819   10.6134   -0.2914 O   0  0  0  0  0  0  0  0  0  0  0  0
   28.6291    7.0158    3.0020 H   0  0  0  0  0  0  0  0  0  0  0  0
   31.6343    7.1552   -1.4106 C   0  0  0  0  0  0  0  0  0  0  0  0
   35.8603    5.2092   -3.2429 C   0  0  0  0  0  0  0  0  0  0  0  0
   38.5795    3.6576   -7.1420 N   0  0  0  0  0  0  0  0  0  0  0  0
   32.9491    5.9713   -7.2358 O   0  0  0  0  0  0  0  0  0  0  0  0
   38.0063    3.8077   -7.9282 H   0  0  0  0  0  0  0  0  0  0  0  0
   42.8055    1.7115   -8.9743 C   0  0  0  0  0  0  0  0  0  0  0  0
   47.4597    0.0326   -8.2683 C   0  0  0  0  0  0  0  0  0  0  0  0
   50.6997   -3.7673   -8.0089 N   0  0  0  0  0  0  0  0  0  0  0  0
   50.1962    4.1277   -7.4049 O   0  0  0  0  0  0  0  0  0  0  0  0
   50.1610   -4.5735   -8.1789 H   0  0  0  0  0  0  0  0  0  0  0  0
   55.3560   -5.4476   -7.3027 C   0  0  0  0  0  0  0  0  0  0  0  0
   58.8438   -8.9626   -7.9988 C   0  0  0  0  0  0  0  0  0  0  0  0
   62.7590  -11.5735   -6.3079 N   0  0  0  0  0  0  0  0  0  0  0  0
   59.6694   -7.2160   -3.3872 O   0  0  0  0  0  0  0  0  0  0  0  0
   62.9215  -11.2296   -5.3998 H   0  0  0  0  0  0  0  0  0  0  0  0
   66.2467  -15.0884   -7.0040 C   0  0  0  0  0  0  0  0  0  0  0  0
   69.7446  -17.2056   -9.8782 C   0  0  0  0  0  0  0  0  0  0  0  0
   71.8447  -17.8624  -14.3684 N   0  0  0  0  0  0  0  0  0  0  0  0
   75.3442  -19.9804  -17.2446 C   0  0  0  0  0  0  0  0  0  0  0  0
   72.4480  -20.0288   -6.7598 O   0  0  0  0  0  0  0  0  0  0  0  0
   74.4529  -18.2540  -21.8524 C   0  0  0  0  0  0  0  0  0  0  0  0
   69.1415  -15.0395  -17.4866 C   0  0  0  0  0  0  0  0  0  0  0  0
   70.6620  -15.0908  -22.6456 C   0  0  0  0  0  0  0  0  0  0  0  0
   77.4444  -20.6372  -21.7348 C   0  0  0  0  0  0  0  0  0  0  0  0
   72.6278  -21.8165  -22.3743 O   0  0  0  0  0  0  0  0  0  0  0  0
   80.1042  -21.1061  -25.9438 O   0  0  0  0  0  0  0  0  0  0  0  0
   81.0208  -20.9114  -25.9429 H   0  0  0  0  0  0  0  0  0  0  0  0
   68.0339  -18.8817   -4.2818 C   0  0  0  0  0  0  0  0  0  0  0  0
   64.9543  -22.4775   -2.6760 S   0  0  0  0  0  0  0  0  0  0  0  0
   63.6297  -22.4240   -2.9796 H   0  0  0  0  0  0  0  0  0  0  0  0
   55.5095   -9.8624   -9.6465 C   0  0  0  0  0  0  0  0  0  0  0  0
   55.7977  -14.0911   -6.9929 C   0  0  0  0  0  0  0  0  0  0  0  0
   56.2853   -9.6688   -4.7115 N   0  0  0  0  0  0  0  0  0  0  0  0
   56.4121  -16.4195   -2.6110 C   0  0  0  0  0  0  0  0  0  0  0  0
   56.8997  -11.9972   -0.3296 N   0  0  0  0  0  0  0  0  0  0  0  0
   57.0148   -7.0019   -0.5444 C   0  0  0  0  0  0  0  0  0  0  0  0
   56.1932   -9.0007   -5.4288 H   0  0  0  0  0  0  0  0  0  0  0  0
   57.0414  -12.2147    0.6201 H   0  0  0  0  0  0  0  0  0  0  0  0
   39.7851    2.2050  -12.9291 C   0  0  0  0  0  0  0  0  0  0  0  0
   39.0085   -1.6803  -15.9799 C   0  0  0  0  0  0  0  0  0  0  0  0
   35.9500   -5.3817  -14.5826 C   0  0  0  0  0  0  0  0  0  0  0  0
   34.4516   -5.7225   -9.8238 N   0  0  0  0  0  0  0  0  0  0  0  0
   34.3908   -8.7403  -17.9421 O   0  0  0  0  0  0  0  0  0  0  0  0
   33.8494   -6.4511   -9.5483 H   0  0  0  0  0  0  0  0  0  0  0  0
   34.7587   -5.0611   -9.1624 H   0  0  0  0  0  0  0  0  0  0  0  0
   34.9314    3.7425    0.1671 C   0  0  0  0  0  0  0  0  0  0  0  0
   36.3871    3.6994    4.9509 C   0  0  0  0  0  0  0  0  0  0  0  0
   40.9472    5.3357    6.1898 C   0  0  0  0  0  0  0  0  0  0  0  0
   44.2612    2.1933    8.2256 C   0  0  0  0  0  0  0  0  0  0  0  0
   48.5304    1.1692    5.8316 N   0  0  0  0  0  0  0  0  0  0  0  0
   49.2067    0.5282    6.2465 H   0  0  0  0  0  0  0  0  0  0  0  0
   48.7249    1.6012    4.9283 H   0  0  0  0  0  0  0  0  0  0  0  0
   49.4012    0.9603    5.3432 H   0  0  0  0  0  0  0  0  0  0  0  0
   20.2531   11.0104   16.7847 C   0  0  0  0  0  0  0  0  0  0  0  0
   18.9788    9.5630   12.1712 N   0  0  0  0  0  0  0  0  0  0  0  0
   15.5063    9.4882   17.1711 O   0  0  0  0  0  0  0  0  0  0  0  0
   18.0441    9.2632   12.2473 H   0  0  0  0  0  0  0  0  0  0  0  0
   19.0705   11.6700   21.5983 C   0  0  0  0  0  0  0  0  0  0  0  0
   21.5667    7.3975   29.8948 C   0  0  0  0  0  0  0  0  0  0  0  0
   19.5236   10.3242   26.3929 N   0  0  0  0  0  0  0  0  0  0  0  0
   24.6386    4.3430   27.3976 O   0  0  0  0  0  0  0  0  0  0  0  0
   18.9188   10.9256   26.8845 H   0  0  0  0  0  0  0  0  0  0  0  0
   22.0192    6.0529   34.6871 C   0  0  0  0  0  0  0  0  0  0  0  0
   28.7896    1.7818   40.0943 C   0  0  0  0  0  0  0  0  0  0  0  0
   24.5165    3.6537   38.2943 N   0  0  0  0  0  0  0  0  0  0  0  0
   25.3586    0.7630   43.5856 O   0  0  0  0  0  0  0  0  0  0  0  0
   23.8409    3.4531   38.9817 H   0  0  0  0  0  0  0  0  0  0  0  0
   31.2869   -0.6174   43.7015 C   0  0  0  0  0  0  0  0  0  0  0  0
   33.9026   -1.4740   39.5272 C   0  0  0  0  0  0  0  0  0  0  0  0
   39.4401   -5.7832   44.0996 C   0  0  0  0  0  0  0  0  0  0  0  0
   35.1380   -3.4599   45.1480 N   0  0  0  0  0  0  0  0  0  0  0  0
   40.3112   -4.7797   39.2791 O   0  0  0  0  0  0  0  0  0  0  0  0
   34.9665   -3.6575   46.0971 H   0  0  0  0  0  0  0  0  0  0  0  0
   43.2889   -8.6243   45.5460 C   0  0  0  0  0  0  0  0  0  0  0  0
   52.2933  -11.9630   46.5921 C   0  0  0  0  0  0  0  0  0  0  0  0
   48.1672   -9.1392   46.5165 N   0  0  0  0  0  0  0  0  0  0  0  0
   53.7464   -7.5022   48.3209 O   0  0  0  0  0  0  0  0  0  0  0  0
   48.4533   -8.2608   46.8569 H   0  0  0  0  0  0  0  0  0  0  0  0
   57.1715  -12.4778   47.5625 C   0  0  0  0  0  0  0  0  0  0  0  0
   66.8007  -12.1173   46.8785 C   0  0  0  0  0  0  0  0  0  0  0  0
   61.9101  -12.6350   45.9736 N   0  0  0  0  0  0  0  0  0  0  0  0
   67.0941  -10.8132   51.6968 O   0  0  0  0  0  0  0  0  0  0  0  0
   61.8524  -12.8918   45.0249 H   0  0  0  0  0  0  0  0  0  0  0  0
   76.4128  -13.2262   44.7275 N   0  0  0  0  0  0  0  0  0  0  0  0
   71.5366  -12.2746   45.2897 C   0  0  0  0  0  0  0  0  0  0  0  0
   76.8910  -13.8430   45.3841 H   0  0  0  0  0  0  0  0  0  0  0  0
   76.9292  -12.8035   43.9562 H   0  0  0  0  0  0  0  0  0  0  0  0
   77.4075  -13.4203   44.6128 H   0  0  0  0  0  0  0  0  0  0  0  0
   71.6448   -9.3326   41.2484 C   0  0  0  0  0  0  0  0  0  0  0  0
   71.7529   -6.3906   37.2071 C   0  0  0  0  0  0  0  0  0  0  0  0
   67.1804  -11.0940   39.8466 O   0  0  0  0  0  0  0  0  0  0  0  0
   66.7292  -11.7591   40.3896 H   0  0  0  0  0  0  0  0  0  0  0  0
   56.9017  -11.7869   42.6178 C   0  0  0  0  0  0  0  0  0  0  0  0
   59.1560  -11.3879   38.1721 C   0  0  0  0  0  0  0  0  0  0  0  0
   57.2669   -8.3519   34.6763 C   0  0  0  0  0  0  0  0  0  0  0  0
   59.7173   -4.1848   33.3969 N   0  0  0  0  0  0  0  0  0  0  0  0
   52.9295   -9.4824   32.4611 O   0  0  0  0  0  0  0  0  0  0  0  0
   59.3457   -3.5869   32.7087 H   0  0  0  0  0  0  0  0  0  0  0  0
   60.5714   -3.9624   33.8332 H   0  0  0  0  0  0  0  0  0  0  0  0
   41.3049  -13.1205   46.4669 C   0  0  0  0  0  0  0  0  0  0  0  0
   41.8128  -17.8364   48.0467 C   0  0  0  0  0  0  0  0  0  0  0  0
   45.8025  -20.5184   46.6748 C   0  0  0  0  0  0  0  0  0  0  0  0
   45.2631  -25.3111   45.3590 N   0  0  0  0  0  0  0  0  0  0  0  0
   50.3341  -18.4065   46.6189 O   0  0  0  0  0  0  0  0  0  0  0  0
   46.0491  -25.8389   45.0889 H   0  0  0  0  0  0  0  0  0  0  0  0
   44.3709  -25.7272   45.3700 H   0  0  0  0  0  0  0  0  0  0  0  0
   19.3632    6.8461   38.8493 C   0  0  0  0  0  0  0  0  0  0  0  0
   18.2187    3.0138   41.8509 O   0  0  0  0  0  0  0  0  0  0  0  0
   17.7035    3.1672   42.6584 H   0  0  0  0  0  0  0  0  0  0  0  0
   22.2309    7.7957   21.5615 C   0  0  0  0  0  0  0  0  0  0  0  0
   26.3520    5.5860   19.7934 C   0  0  0  0  0  0  0  0  0  0  0  0
   25.6866    6.0508   24.7269 N   0  0  0  0  0  0  0  0  0  0  0  0
   30.7267    3.3027   20.5985 C   0  0  0  0  0  0  0  0  0  0  0  0
   30.0612    3.7675   25.5320 N   0  0  0  0  0  0  0  0  0  0  0  0
   27.2977    5.3117   29.4008 C   0  0  0  0  0  0  0  0  0  0  0  0
   24.8207    6.5087   24.8253 H   0  0  0  0  0  0  0  0  0  0  0  0
   30.8593    3.3570   25.9367 H   0  0  0  0  0  0  0  0  0  0  0  0
 97 98  1  0  0  0
 97 99  1  0  0  0
 97100  1  0  0  0
 97101  1  0  0  0
 98102  1  0  0  0
 98 93  1  0  0  0
102103  1  0  0  0
102104  1  0  0  0
104105  1  0  0  0
 93 94  1  0  0  0
 93 95  2  0  0  0
 94 92  1  0  0  0
 94 96  1  0  0  0
 92 88  1  0  0  0
 92106  1  0  0  0
 88 89  1  0  0  0
 88 90  2  0  0  0
 89 87  1  0  0  0
 89 91  1  0  0  0
 87 83  1  0  0  0
 87113  1  0  0  0
 83 84  1  0  0  0
 83 85  2  0  0  0
 84 81  1  0  0  0
 84 86  1  0  0  0
 81 77  1  0  0  0
 81 82  1  0  0  0
 77 78  1  0  0  0
 77 79  2  0  0  0
 78 76  1  0  0  0
 78 80  1  0  0  0
 76 72  1  0  0  0
 76120  1  0  0  0
 72 73  1  0  0  0
 72 74  2  0  0  0
 73 71  1  0  0  0
 73 75  1  0  0  0
 71 67  1  0  0  0
 71123  1  0  0  0
106107  1  0  0  0
107108  1  0  0  0
108109  1  0  0  0
108110  2  0  0  0
109111  1  0  0  0
109112  1  0  0  0
113114  1  0  0  0
114115  1  0  0  0
115116  1  0  0  0
115117  2  0  0  0
116118  1  0  0  0
116119  1  0  0  0
120121  1  0  0  0
121122  1  0  0  0
 67 68  1  0  0  0
 67 69  2  0  0  0
 68  1  1  0  0  0
 68 70  1  0  0  0
  1 10  1  0  0  0
  1  2  1  0  0  0
 10 11  1  0  0  0
 10 12  2  0  0  0
 11 14  1  0  0  0
 11 13  1  0  0  0
 14 15  1  0  0  0
 14 59  1  0  0  0
 15 16  1  0  0  0
 15 17  2  0  0  0
 16 19  1  0  0  0
 16 18  1  0  0  0
 19 20  1  0  0  0
 19 52  1  0  0  0
123124  1  0  0  0
124125  1  0  0  0
124126  2  0  0  0
125128  1  0  0  0
125129  1  0  0  0
126127  1  0  0  0
127128  2  0  0  0
127130  1  0  0  0
  2  3  2  0  0  0
  3  4  1  0  0  0
  4  5  2  0  0  0
  5  6  1  0  0  0
  5  8  1  0  0  0
  6  7  2  0  0  0
  7  2  1  0  0  0
  8  9  1  0  0  0
 59 60  1  0  0  0
 60 61  1  0  0  0
 61 62  1  0  0  0
 62 63  1  0  0  0
 63 64  1  0  0  0
 63 65  1  0  0  0
 63 66  1  0  0  0
 20 21  1  0  0  0
 20 22  2  0  0  0
 21 24  1  0  0  0
 21 23  1  0  0  0
 24 25  1  0  0  0
 24 44  1  0  0  0
 25 26  1  0  0  0
 25 27  2  0  0  0
 26 29  1  0  0  0
 26 28  1  0  0  0
 29 30  1  0  0  0
 29 41  1  0  0  0
 30 31  1  0  0  0
 30 33  2  0  0  0
 31 32  1  0  0  0
 31 35  1  0  0  0
 32 37  1  0  0  0
 32 34  1  0  0  0
 37 38  2  0  0  0
 37 39  1  0  0  0
 52 53  1  0  0  0
 53 54  1  0  0  0
 54 55  1  0  0  0
 54 56  2  0  0  0
 55 57  1  0  0  0
 55 58  1  0  0  0
 44 45  1  0  0  0
 45 46  1  0  0  0
 45 47  2  0  0  0
 46 49  1  0  0  0
 46 50  1  0  0  0
 47 48  1  0  0  0
 48 49  2  0  0  0
 48 51  1  0  0  0
 41 42  1  0  0  0
 42 43  1  0  0  0
 39 40  1  0  0  0
 34 36  1  0  0  0
 35 36  1  0  0  0
M  CHG 1  48   1
M  CHG 1  63   1
M  CHG 1  97   1
M  CHG 1 127   1
M  END
> <minimizedAffinity>
-8.74763

$$$$



130133  0  0  0  0  0  0  0  0999 V2000
   20.2710    8.9479    7.3909 C   0  0  0  0  0  0  0  0  0  0  0  0
   15.9311    8.1422    5.0423 C   0  0  0  0  0  0  0  0  0  0  0  0
   15.5319    9.0606    0.1424 C   0  0  0  0  0  0  0  0  0  0  0  0
   11.1920    8.2548   -2.2062 C   0  0  0  0  0  0  0  0  0  0  0  0
    7.2515    6.5308    0.3451 C   0  0  0  0  0  0  0  0  0  0  0  0
    7.6514    5.6131    5.2426 C   0  0  0  0  0  0  0  0  0  0  0  0
   11.9913    6.4189    7.5912 C   0  0  0  0  0  0  0  0  0  0  0  0
    2.9112    5.7250   -2.0037 O   0  0  0  0  0  0  0  0  0  0  0  0
    2.8363    5.8970   -2.9218 H   0  0  0  0  0  0  0  0  0  0  0  0
   23.7478    8.6892    3.8100 C   0  0  0  0  0  0  0  0  0  0  0  0
   28.3819    7.5058    2.3511 N   0  0  0  0  0  0  0  0  0  0  0  0
   21.5159   10.4748   -0.2929 O   0  0  0  0  0  0  0  0  0  0  0  0
   28.8214    7.1542    3.1589 H   0  0  0  0  0  0  0  0  0  0  0  0
   31.8610    7.2466   -1.2313 C   0  0  0  0  0  0  0  0  0  0  0  0
   36.0234    5.1870   -3.0847 C   0  0  0  0  0  0  0  0  0  0  0  0
   38.6089    3.3966   -6.9724 N   0  0  0  0  0  0  0  0  0  0  0  0
   32.9766    5.7072   -7.0147 O   0  0  0  0  0  0  0  0  0  0  0  0
   38.0089    3.4991   -7.7463 H   0  0  0  0  0  0  0  0  0  0  0  0
   42.7714    1.3370   -8.8259 C   0  0  0  0  0  0  0  0  0  0  0  0
   47.4900   -0.1902   -8.2086 C   0  0  0  0  0  0  0  0  0  0  0  0
   50.8438   -3.8891   -7.9362 N   0  0  0  0  0  0  0  0  0  0  0  0
   50.1311    4.0029   -7.5416 O   0  0  0  0  0  0  0  0  0  0  0  0
   50.3238   -4.7147   -8.0676 H   0  0  0  0  0  0  0  0  0  0  0  0
   55.5645   -5.4177   -7.3186 C   0  0  0  0  0  0  0  0  0  0  0  0
   59.1352   -8.8451   -8.0314 C   0  0  0  0  0  0  0  0  0  0  0  0
   63.5575  -10.8162   -6.7816 N   0  0  0  0  0  0  0  0  0  0  0  0
   60.7806   -6.0318   -4.2397 O   0  0  0  0  0  0  0  0  0  0  0  0
   63.8815  -10.2623   -6.0350 H   0  0  0  0  0  0  0  0  0  0  0  0
   67.1280  -14.2436   -7.4944 C   0  0  0  0  0  0  0  0  0  0  0  0
   69.6711  -17.2736  -10.5490 C   0  0  0  0  0  0  0  0  0  0  0  0
   70.6978  -21.8751  -12.2148 N   0  0  0  0  0  0  0  0  0  0  0  0
   73.2419  -24.9072  -15.2707 C   0  0  0  0  0  0  0  0  0  0  0  0
   72.6028  -14.2411  -13.2346 O   0  0  0  0  0  0  0  0  0  0  0  0
   71.6277  -29.5098  -14.1676 C   0  0  0  0  0  0  0  0  0  0  0  0
   67.7664  -24.9074   -9.5294 C   0  0  0  0  0  0  0  0  0  0  0  0
   68.1645  -30.1594  -10.6194 C   0  0  0  0  0  0  0  0  0  0  0  0
   74.2687  -29.5088  -16.9367 C   0  0  0  0  0  0  0  0  0  0  0  0
   77.8718  -26.6104  -18.8382 O   0  0  0  0  0  0  0  0  0  0  0  0
   74.7640  -34.3023  -18.2733 O   0  0  0  0  0  0  0  0  0  0  0  0
   74.1442  -34.9385  -17.9747 H   0  0  0  0  0  0  0  0  0  0  0  0
   70.4262  -16.5761   -4.5491 C   0  0  0  0  0  0  0  0  0  0  0  0
   68.8319  -19.2747   -0.6544 S   0  0  0  0  0  0  0  0  0  0  0  0
   67.5005  -19.3744   -0.3957 H   0  0  0  0  0  0  0  0  0  0  0  0
   55.7870   -9.8779   -9.5692 C   0  0  0  0  0  0  0  0  0  0  0  0
   52.1790  -11.2563  -12.7455 C   0  0  0  0  0  0  0  0  0  0  0  0
   51.0648  -10.2624   -7.9737 N   0  0  0  0  0  0  0  0  0  0  0  0
   47.3692  -12.2738  -13.6567 C   0  0  0  0  0  0  0  0  0  0  0  0
   46.2549  -11.2800   -8.8849 N   0  0  0  0  0  0  0  0  0  0  0  0
   47.6948   -9.9103   -4.2955 C   0  0  0  0  0  0  0  0  0  0  0  0
   51.9228  -10.0183   -7.5573 H   0  0  0  0  0  0  0  0  0  0  0  0
   45.2833  -11.4229   -8.8150 H   0  0  0  0  0  0  0  0  0  0  0  0
   39.5368    1.3769  -12.6394 C   0  0  0  0  0  0  0  0  0  0  0  0
   34.6370    1.8414  -11.7547 C   0  0  0  0  0  0  0  0  0  0  0  0
   31.3563    1.2248  -15.4781 C   0  0  0  0  0  0  0  0  0  0  0  0
   29.6229    5.2020  -17.9649 N   0  0  0  0  0  0  0  0  0  0  0  0
   29.8100   -3.3664  -16.7142 O   0  0  0  0  0  0  0  0  0  0  0  0
   28.9770    5.0810  -18.6980 H   0  0  0  0  0  0  0  0  0  0  0  0
   29.9274    6.1060  -17.7214 H   0  0  0  0  0  0  0  0  0  0  0  0
   34.9831    3.6338    0.2540 C   0  0  0  0  0  0  0  0  0  0  0  0
   36.5173    3.4565    5.0101 C   0  0  0  0  0  0  0  0  0  0  0  0
   41.0172    5.2493    6.2524 C   0  0  0  0  0  0  0  0  0  0  0  0
   44.4255    2.2303    8.3193 C   0  0  0  0  0  0  0  0  0  0  0  0
   48.6233    1.1301    5.8344 N   0  0  0  0  0  0  0  0  0  0  0  0
   49.3187    0.5143    6.2556 H   0  0  0  0  0  0  0  0  0  0  0  0
   48.7840    1.5214    4.9063 H   0  0  0  0  0  0  0  0  0  0  0  0
   49.4794    0.9057    5.3275 H   0  0  0  0  0  0  0  0  0  0  0  0
   20.3012   10.9751   16.8359 C   0  0  0  0  0  0  0  0  0  0  0  0
   19.0392    9.6240   12.1899 N   0  0  0  0  0  0  0  0  0  0  0  0
   15.4834    9.6709   17.1312 O   0  0  0  0  0  0  0  0  0  0  0  0
   18.0906    9.3672   12.2480 H   0  0  0  0  0  0  0  0  0  0  0  0
   19.0694   11.6512   21.6348 C   0  0  0  0  0  0  0  0  0  0  0  0
   21.4238    7.3612   29.9637 C   0  0  0  0  0  0  0  0  0  0  0  0
   19.4437   10.2979   26.4341 N   0  0  0  0  0  0  0  0  0  0  0  0
   24.5264    4.3017   27.5108 O   0  0  0  0  0  0  0  0  0  0  0  0
   18.8329   10.9003   26.9170 H   0  0  0  0  0  0  0  0  0  0  0  0
   21.7975    6.0091   34.7607 C   0  0  0  0  0  0  0  0  0  0  0  0
   28.4786    1.7322   40.2734 C   0  0  0  0  0  0  0  0  0  0  0  0
   24.2350    3.6039   38.4046 N   0  0  0  0  0  0  0  0  0  0  0  0
   24.9892    0.7016   43.7028 O   0  0  0  0  0  0  0  0  0  0  0  0
   23.5479    3.4010   39.0798 H   0  0  0  0  0  0  0  0  0  0  0  0
   30.9161   -0.6730   43.9173 C   0  0  0  0  0  0  0  0  0  0  0  0
   33.6091   -1.5092   39.7884 C   0  0  0  0  0  0  0  0  0  0  0  0
   39.0773   -5.8140   44.4482 C   0  0  0  0  0  0  0  0  0  0  0  0
   34.7474   -3.5110   45.4240 N   0  0  0  0  0  0  0  0  0  0  0  0
   40.0405   -4.7803   39.6517 O   0  0  0  0  0  0  0  0  0  0  0  0
   34.5578   -3.7145   46.3684 H   0  0  0  0  0  0  0  0  0  0  0  0
   42.9064   -8.6506   45.9548 C   0  0  0  0  0  0  0  0  0  0  0  0
   52.2355  -11.1574   46.0198 C   0  0  0  0  0  0  0  0  0  0  0  0
   47.7654   -9.1536   47.0235 N   0  0  0  0  0  0  0  0  0  0  0  0
   52.9867   -8.2580   50.0233 O   0  0  0  0  0  0  0  0  0  0  0  0
   47.9133   -8.5827   47.8118 H   0  0  0  0  0  0  0  0  0  0  0  0
   57.0943  -11.6605   47.0885 C   0  0  0  0  0  0  0  0  0  0  0  0
   65.2055  -12.7517   41.9565 C   0  0  0  0  0  0  0  0  0  0  0  0
   61.7884  -12.5297   45.6005 N   0  0  0  0  0  0  0  0  0  0  0  0
   62.7382  -11.5011   37.7910 O   0  0  0  0  0  0  0  0  0  0  0  0
   62.2742  -12.7759   46.4206 H   0  0  0  0  0  0  0  0  0  0  0  0
   74.7839  -13.2917   39.4645 N   0  0  0  0  0  0  0  0  0  0  0  0
   69.8973  -13.6206   40.4699 C   0  0  0  0  0  0  0  0  0  0  0  0
   75.3003  -12.4483   39.7140 H   0  0  0  0  0  0  0  0  0  0  0  0
   75.2644  -14.0681   39.0098 H   0  0  0  0  0  0  0  0  0  0  0  0
   75.7808  -13.2247   39.2593 H   0  0  0  0  0  0  0  0  0  0  0  0
   69.7958  -18.2051   38.4769 C   0  0  0  0  0  0  0  0  0  0  0  0
   69.6943  -22.7895   36.4840 C   0  0  0  0  0  0  0  0  0  0  0  0
   66.6083  -19.6812   42.0348 O   0  0  0  0  0  0  0  0  0  0  0  0
   66.3161  -19.0542   42.7148 H   0  0  0  0  0  0  0  0  0  0  0  0
   56.7758  -12.3680   42.1491 C   0  0  0  0  0  0  0  0  0  0  0  0
   58.9486  -13.4838   37.7856 C   0  0  0  0  0  0  0  0  0  0  0  0
   63.7336  -14.9324   37.6753 C   0  0  0  0  0  0  0  0  0  0  0  0
   64.8959  -19.6189   36.3747 N   0  0  0  0  0  0  0  0  0  0  0  0
   67.3542  -11.6962   38.8651 O   0  0  0  0  0  0  0  0  0  0  0  0
   65.8379  -19.9045   36.3529 H   0  0  0  0  0  0  0  0  0  0  0  0
   64.1828  -20.2560   36.1405 H   0  0  0  0  0  0  0  0  0  0  0  0
   40.9215  -13.1608   46.8023 C   0  0  0  0  0  0  0  0  0  0  0  0
   41.4148  -17.8855   48.3600 C   0  0  0  0  0  0  0  0  0  0  0  0
   45.4435  -20.5424   47.0547 C   0  0  0  0  0  0  0  0  0  0  0  0
   44.9511  -25.3275   45.6933 N   0  0  0  0  0  0  0  0  0  0  0  0
   49.9669  -18.4131   47.1108 O   0  0  0  0  0  0  0  0  0  0  0  0
   45.7448  -25.8503   45.4363 H   0  0  0  0  0  0  0  0  0  0  0  0
   44.0605  -25.7470   45.6822 H   0  0  0  0  0  0  0  0  0  0  0  0
   19.0738    6.7963   38.8800 C   0  0  0  0  0  0  0  0  0  0  0  0
   17.8589    2.9560   41.8435 O   0  0  0  0  0  0  0  0  0  0  0  0
   17.3306    3.1082   42.6426 H   0  0  0  0  0  0  0  0  0  0  0  0
   22.1724    7.7305   21.6354 C   0  0  0  0  0  0  0  0  0  0  0  0
   26.3889    5.5452   20.0739 C   0  0  0  0  0  0  0  0  0  0  0  0
   25.5088    6.0665   24.9679 N   0  0  0  0  0  0  0  0  0  0  0  0
   30.7497    3.3227   21.0948 C   0  0  0  0  0  0  0  0  0  0  0  0
   29.8696    3.8441   25.9889 N   0  0  0  0  0  0  0  0  0  0  0  0
   26.9271    5.4067   29.7156 C   0  0  0  0  0  0  0  0  0  0  0  0
   24.6345    6.5158   25.0232 H   0  0  0  0  0  0  0  0  0  0  0  0
   30.6541    3.4480   26.4325 H   0  0  0  0  0  0  0  0  0  0  0  0
 97 98  1  0  0  0
 97 99  1  0  0  0
 97100  1  0  0  0
 97101  1  0  0  0
 98102  1  0  0  0
 98 93  1  0  0  0
102103  1  0  0  0
102104  1  0  0  0
104105  1  0  0  0
 93 94  1  0  0  0
 93 95  2  0  0  0
 94 92  1  0  0  0
 94 96  1  0  0  0
 92 88  1  0  0  0
 92106  1  0  0  0
 88 89  1  0  0  0
 88 90  2  0  0  0
 89 87  1  0  0  0
 89 91  1  0  0  0
 87 83  1  0  0  0
 87113  1  0  0  0
 83 84  1  0  0  0
 83 85  2  0  0  0
 84 81  1  0  0  0
 84 86  1  0  0  0
 81 77  1  0  0  0
 81 82  1  0  0  0
 77 78  1  0  0  0
 77 79  2  0  0  0
 78 76  1  0  0  0
 78 80  1  0  0  0
 76 72  1  0  0  0
 76120  1  0  0  0
 72 73  1  0  0  0
 72 74  2  0  0  0
 73 71  1  0  0  0
 73 75  1  0  0  0
 71 67  1  0  0  0
 71123  1  0  0  0
106107  1  0  0  0
107108  1  0  0  0
108109  1  0  0  0
108110  2  0  0  0
109111  1  0  0  0
109112  1  0  0  0
113114  1  0  0  0
114115  1  0  0  0
115116  1  0  0  0
115117  2  0  0  0
116118  1  0  0  0
116119  1  0  0  0
120121  1  0  0  0
121122  1  0  0  0
 67 68  1  0  0  0
 67 69  2  0  0  0
 68  1  1  0  0  0
 68 70  1  0  0  0
  1 10  1  0  0  0
  1  2  1  0  0  0
 10 11  1  0  0  0
 10 12  2  0  0  0
 11 14  1  0  0  0
 11 13  1  0  0  0
 14 15  1  0  0  0
 14 59  1  0  0  0
 15 16  1  0  0  0
 15 17  2  0  0  0
 16 19  1  0  0  0
 16 18  1  0  0  0
 19 20  1  0  0  0
 19 52  1  0  0  0
123124  1  0  0  0
124125  1  0  0  0
124126  2  0  0  0
125128  1  0  0  0
125129  1  0  0  0
126127  1  0  0  0
127128  2  0  0  0
127130  1  0  0  0
  2  3  2  0  0  0
  3  4  1  0  0  0
  4  5  2  0  0  0
  5  6  1  0  0  0
  5  8  1  0  0  0
  6  7  2  0  0  0
  7  2  1  0  0  0
  8  9  1  0  0  0
 59 60  1  0  0  0
 60 61  1  0  0  0
 61 62  1  0  0  0
 62 63  1  0  0  0
 63 64  1  0  0  0
 63 65  1  0  0  0
 63 66  1  0  0  0
 20 21  1  0  0  0
 20 22  2  0  0  0
 21 24  1  0  0  0
 21 23  1  0  0  0
 24 25  1  0  0  0
 24 44  1  0  0  0
 25 26  1  0  0  0
 25 27  2  0  0  0
 26 29  1  0  0  0
 26 28  1  0  0  0
 29 30  1  0  0  0
 29 41  1  0  0  0
 30 31  1  0  0  0
 30 33  2  0  0  0
 31 32  1  0  0  0
 31 35  1  0  0  0
 32 37  1  0  0  0
 32 34  1  0  0  0
 37 38  2  0  0  0
 37 39  1  0  0  0
 52 53  1  0  0  0
 53 54  1  0  0  0
 54 55  1  0  0  0
 54 56  2  0  0  0
 55 57  1  0  0  0
 55 58  1  0  0  0
 44 45  1  0  0  0
 45 46  1  0  0  0
 45 47  2  0  0  0
 46 49  1  0  0  0
 46 50  1  0  0  0
 47 48  1  0  0  0
 48 49  2  0  0  0
 48 51  1  0  0  0
 41 42  1  0  0  0
 42 43  1  0  0  0
 39 40  1  0  0  0
 34 36  1  0  0  0
 35 36  1  0  0  0
M  CHG 1  48   1
M  CHG 1  63   1
M  CHG 1  97   1
M  CHG 1 127   1
M  END
> <minimizedAffinity>
-8.73289

$$$$



130133  0  0  0  0  0  0  0  0999 V2000
   21.2577  -21.8711   -6.2426 C   0  0  0  0  0  0  0  0  0  0  0  0
   16.7214  -21.2800   -8.2606 C   0  0  0  0  0  0  0  0  0  0  0  0
   16.2211  -18.9110  -12.6365 C   0  0  0  0  0  0  0  0  0  0  0  0
   11.6847  -18.3199  -14.6545 C   0  0  0  0  0  0  0  0  0  0  0  0
    7.6489  -20.0979  -12.2964 C   0  0  0  0  0  0  0  0  0  0  0  0
    8.1499  -22.4656   -7.9227 C   0  0  0  0  0  0  0  0  0  0  0  0
   12.6862  -23.0567   -5.9047 C   0  0  0  0  0  0  0  0  0  0  0  0
    3.1122  -19.5067  -14.3146 O   0  0  0  0  0  0  0  0  0  0  0  0
    3.0184  -19.0629  -15.1345 H   0  0  0  0  0  0  0  0  0  0  0  0
   20.6352  -20.9558   -1.3689 C   0  0  0  0  0  0  0  0  0  0  0  0
   19.4066  -22.5394    3.2123 N   0  0  0  0  0  0  0  0  0  0  0  0
   21.8051  -16.1278   -0.7985 O   0  0  0  0  0  0  0  0  0  0  0  0
   19.1762  -23.4900    3.1000 H   0  0  0  0  0  0  0  0  0  0  0  0
   18.7835  -21.6243    8.0886 C   0  0  0  0  0  0  0  0  0  0  0  0
   19.6953  -18.8058   12.1170 C   0  0  0  0  0  0  0  0  0  0  0  0
   18.0276  -16.0636   15.9514 N   0  0  0  0  0  0  0  0  0  0  0  0
   14.7117  -18.9532   11.7421 O   0  0  0  0  0  0  0  0  0  0  0  0
   17.0463  -16.0926   15.8776 H   0  0  0  0  0  0  0  0  0  0  0  0
   18.9394  -13.2450   19.9799 C   0  0  0  0  0  0  0  0  0  0  0  0
   22.1593  -11.3642   23.3075 C   0  0  0  0  0  0  0  0  0  0  0  0
   23.0443   -9.1379   27.6967 N   0  0  0  0  0  0  0  0  0  0  0  0
   26.6727  -12.0292   21.2606 O   0  0  0  0  0  0  0  0  0  0  0  0
   22.1557   -9.0070   28.0997 H   0  0  0  0  0  0  0  0  0  0  0  0
   26.2653   -7.2560   31.0264 C   0  0  0  0  0  0  0  0  0  0  0  0
   30.5903   -4.9650   32.0513 C   0  0  0  0  0  0  0  0  0  0  0  0
   33.8473   -1.2719   31.1813 N   0  0  0  0  0  0  0  0  0  0  0  0
   28.5270   -2.2560   28.3902 O   0  0  0  0  0  0  0  0  0  0  0  0
   33.4410   -0.7385   30.4604 H   0  0  0  0  0  0  0  0  0  0  0  0
   38.1722    1.0191   32.2062 C   0  0  0  0  0  0  0  0  0  0  0  0
   43.1291    1.3520   31.6613 C   0  0  0  0  0  0  0  0  0  0  0  0
   47.5030    3.3874   32.9763 N   0  0  0  0  0  0  0  0  0  0  0  0
   52.4625    3.7210   32.4315 C   0  0  0  0  0  0  0  0  0  0  0  0
   44.2603   -1.9364   28.0682 O   0  0  0  0  0  0  0  0  0  0  0  0
   53.8995    7.1820   35.7426 C   0  0  0  0  0  0  0  0  0  0  0  0
   46.3719    6.6755   36.5692 C   0  0  0  0  0  0  0  0  0  0  0  0
   50.5034    9.4162   38.6547 C   0  0  0  0  0  0  0  0  0  0  0  0
   56.8365    5.7564   33.7465 C   0  0  0  0  0  0  0  0  0  0  0  0
   54.6346    4.5215   38.0622 O   0  0  0  0  0  0  0  0  0  0  0  0
   61.3182    7.8704   34.4213 O   0  0  0  0  0  0  0  0  0  0  0  0
   61.8238    8.1434   33.6811 H   0  0  0  0  0  0  0  0  0  0  0  0
   39.5120    4.9728   34.9569 C   0  0  0  0  0  0  0  0  0  0  0  0
   43.6872    7.4904   33.8515 S   0  0  0  0  0  0  0  0  0  0  0  0
   44.4591    7.0997   32.8021 H   0  0  0  0  0  0  0  0  0  0  0  0
   30.0662   -5.4912   28.2976 C   0  0  0  0  0  0  0  0  0  0  0  0
   32.2990   -8.4333   24.9264 C   0  0  0  0  0  0  0  0  0  0  0  0
   27.7280   -9.5718   26.6023 N   0  0  0  0  0  0  0  0  0  0  0  0
   32.2367  -12.4882   22.0017 C   0  0  0  0  0  0  0  0  0  0  0  0
   27.6657  -13.6267   23.6776 N   0  0  0  0  0  0  0  0  0  0  0  0
   23.7370  -12.5854   26.5919 C   0  0  0  0  0  0  0  0  0  0  0  0
   27.5070   -8.8586   27.2439 H   0  0  0  0  0  0  0  0  0  0  0  0
   27.4209  -14.4560   23.2067 H   0  0  0  0  0  0  0  0  0  0  0  0
   14.0055  -12.8954   19.2439 C   0  0  0  0  0  0  0  0  0  0  0  0
   12.1885  -12.5879   14.5953 C   0  0  0  0  0  0  0  0  0  0  0  0
    9.3981   -8.6594   13.2582 C   0  0  0  0  0  0  0  0  0  0  0  0
    9.6791   -4.3954   15.8557 N   0  0  0  0  0  0  0  0  0  0  0  0
    6.3286   -8.9946    9.3259 O   0  0  0  0  0  0  0  0  0  0  0  0
    9.1299   -3.6218   15.5928 H   0  0  0  0  0  0  0  0  0  0  0  0
   10.2835   -4.3296   16.6300 H   0  0  0  0  0  0  0  0  0  0  0  0
   21.4264  -17.4728    8.9756 C   0  0  0  0  0  0  0  0  0  0  0  0
   26.3501  -17.7730    9.7960 C   0  0  0  0  0  0  0  0  0  0  0  0
   29.2570  -13.7744    9.0428 C   0  0  0  0  0  0  0  0  0  0  0  0
   33.1553  -12.9168   12.0545 C   0  0  0  0  0  0  0  0  0  0  0  0
   32.4120  -12.0974   16.9313 N   0  0  0  0  0  0  0  0  0  0  0  0
   33.2069  -11.9225   17.5460 H   0  0  0  0  0  0  0  0  0  0  0  0
   31.4654  -12.1053   17.3113 H   0  0  0  0  0  0  0  0  0  0  0  0
   32.2603  -11.9303   17.9260 H   0  0  0  0  0  0  0  0  0  0  0  0
   26.5313  -26.5719  -12.8311 C   0  0  0  0  0  0  0  0  0  0  0  0
   24.2293  -23.0929  -10.0742 N   0  0  0  0  0  0  0  0  0  0  0  0
   27.8247  -22.2111  -14.9072 O   0  0  0  0  0  0  0  0  0  0  0  0
   24.4839  -22.2343  -10.4830 H   0  0  0  0  0  0  0  0  0  0  0  0
   29.5028  -27.7937  -16.6628 C   0  0  0  0  0  0  0  0  0  0  0  0
   36.5200  -23.4034  -21.6429 C   0  0  0  0  0  0  0  0  0  0  0  0
   33.3684  -26.7371  -19.6536 N   0  0  0  0  0  0  0  0  0  0  0  0
   35.1407  -19.0038  -19.7078 O   0  0  0  0  0  0  0  0  0  0  0  0
   33.6400  -27.6033  -20.0346 H   0  0  0  0  0  0  0  0  0  0  0  0
   40.3836  -22.3480  -24.6323 C   0  0  0  0  0  0  0  0  0  0  0  0
   47.4586  -15.7796  -24.9804 C   0  0  0  0  0  0  0  0  0  0  0  0
   44.0051  -19.2222  -26.0879 N   0  0  0  0  0  0  0  0  0  0  0  0
   47.7832  -16.3917  -29.9321 O   0  0  0  0  0  0  0  0  0  0  0  0
   44.0691  -19.3427  -27.0629 H   0  0  0  0  0  0  0  0  0  0  0  0
   51.0801  -12.6539  -26.4359 C   0  0  0  0  0  0  0  0  0  0  0  0
   50.8523  -12.1460  -21.4670 C   0  0  0  0  0  0  0  0  0  0  0  0
   57.5092   -5.4483  -26.6892 C   0  0  0  0  0  0  0  0  0  0  0  0
   54.5836   -9.2653  -25.3196 N   0  0  0  0  0  0  0  0  0  0  0  0
   56.3925   -4.6208  -31.4925 O   0  0  0  0  0  0  0  0  0  0  0  0
   54.8035   -9.4282  -24.3739 H   0  0  0  0  0  0  0  0  0  0  0  0
   61.0110   -2.0617  -25.5728 C   0  0  0  0  0  0  0  0  0  0  0  0
   65.4638    5.3491  -21.2632 C   0  0  0  0  0  0  0  0  0  0  0  0
   63.1442    1.0372  -22.2788 N   0  0  0  0  0  0  0  0  0  0  0  0
   65.1038    3.0056  -16.8613 O   0  0  0  0  0  0  0  0  0  0  0  0
   63.0733    0.5757  -21.4120 H   0  0  0  0  0  0  0  0  0  0  0  0
   67.5969    8.4479  -17.9692 C   0  0  0  0  0  0  0  0  0  0  0  0
   72.5891    7.3278   -9.7751 C   0  0  0  0  0  0  0  0  0  0  0  0
   70.2466    9.1701  -13.7905 N   0  0  0  0  0  0  0  0  0  0  0  0
   71.9954    2.3729  -10.0907 O   0  0  0  0  0  0  0  0  0  0  0  0
   70.3635   10.1457  -13.7284 H   0  0  0  0  0  0  0  0  0  0  0  0
   77.8530   10.0163   -1.8183 N   0  0  0  0  0  0  0  0  0  0  0  0
   75.2374    8.0503   -5.5987 C   0  0  0  0  0  0  0  0  0  0  0  0
   78.0360   11.0194   -1.7920 H   0  0  0  0  0  0  0  0  0  0  0  0
   78.2037    9.4143   -1.0733 H   0  0  0  0  0  0  0  0  0  0  0  0
   78.3866   10.4174   -1.0471 H   0  0  0  0  0  0  0  0  0  0  0  0
   75.7121    3.5075   -3.5646 C   0  0  0  0  0  0  0  0  0  0  0  0
   76.1868   -1.0352   -1.5306 C   0  0  0  0  0  0  0  0  0  0  0  0
   73.3085    1.5091   -7.4669 O   0  0  0  0  0  0  0  0  0  0  0  0
   72.9956    2.0785   -8.1871 H   0  0  0  0  0  0  0  0  0  0  0  0
   68.5948    3.8563  -16.2601 C   0  0  0  0  0  0  0  0  0  0  0  0
   71.1906    0.8278  -13.2442 C   0  0  0  0  0  0  0  0  0  0  0  0
   76.1827    1.0976  -13.1273 C   0  0  0  0  0  0  0  0  0  0  0  0
   78.6210    3.7829  -16.5696 N   0  0  0  0  0  0  0  0  0  0  0  0
   78.7349   -1.3168   -9.5699 O   0  0  0  0  0  0  0  0  0  0  0  0
   79.6038    3.8363  -16.5469 H   0  0  0  0  0  0  0  0  0  0  0  0
   78.1182    4.2583  -17.2700 H   0  0  0  0  0  0  0  0  0  0  0  0
   63.6581   -1.5022  -29.7776 C   0  0  0  0  0  0  0  0  0  0  0  0
   67.8321   -0.0321  -32.1032 C   0  0  0  0  0  0  0  0  0  0  0  0
   71.1750    2.7977  -29.6926 C   0  0  0  0  0  0  0  0  0  0  0  0
   73.5166    1.0104  -25.6534 N   0  0  0  0  0  0  0  0  0  0  0  0
   72.1768    7.4171  -31.3222 O   0  0  0  0  0  0  0  0  0  0  0  0
   74.1749    1.5681  -25.1790 H   0  0  0  0  0  0  0  0  0  0  0  0
   73.3195    0.1008  -25.3324 H   0  0  0  0  0  0  0  0  0  0  0  0
   42.7309  -24.7272  -28.3521 C   0  0  0  0  0  0  0  0  0  0  0  0
   47.7149  -25.1317  -28.3071 O   0  0  0  0  0  0  0  0  0  0  0  0
   48.1707  -25.5931  -29.0284 H   0  0  0  0  0  0  0  0  0  0  0  0
   31.2301  -23.3917  -15.0384 C   0  0  0  0  0  0  0  0  0  0  0  0
   34.0845  -20.7536  -11.8942 C   0  0  0  0  0  0  0  0  0  0  0  0
   35.0039  -25.6136  -12.6244 N   0  0  0  0  0  0  0  0  0  0  0  0
   37.9110  -20.5119   -8.6851 C   0  0  0  0  0  0  0  0  0  0  0  0
   38.8304  -25.3719   -9.4152 N   0  0  0  0  0  0  0  0  0  0  0  0
   37.7130  -29.7006  -11.6521 C   0  0  0  0  0  0  0  0  0  0  0  0
   34.3230  -25.9074  -13.2720 H   0  0  0  0  0  0  0  0  0  0  0  0
   39.6050  -25.5737   -8.8421 H   0  0  0  0  0  0  0  0  0  0  0  0
 97 98  1  0  0  0
 97 99  1  0  0  0
 97100  1  0  0  0
 97101  1  0  0  0
 98102  1  0  0  0
 98 93  1  0  0  0
102103  1  0  0  0
102104  1  0  0  0
104105  1  0  0  0
 93 94  1  0  0  0
 93 95  2  0  0  0
 94 92  1  0  0  0
 94 96  1  0  0  0
 92 88  1  0  0  0
 92106  1  0  0  0
 88 89  1  0  0  0
 88 90  2  0  0  0
 89 87  1  0  0  0
 89 91  1  0  0  0
 87 83  1  0  0  0
 87113  1  0  0  0
 83 84  1  0  0  0
 83 85  2  0  0  0
 84 81  1  0  0  0
 84 86  1  0  0  0
 81 77  1  0  0  0
 81 82  1  0  0  0
 77 78  1  0  0  0
 77 79  2  0  0  0
 78 76  1  0  0  0
 78 80  1  0  0  0
 76 72  1  0  0  0
 76120  1  0  0  0
 72 73  1  0  0  0
 72 74  2  0  0  0
 73 71  1  0  0  0
 73 75  1  0  0  0
 71 67  1  0  0  0
 71123  1  0  0  0
106107  1  0  0  0
107108  1  0  0  0
108109  1  0  0  0
108110  2  0  0  0
109111  1  0  0  0
109112  1  0  0  0
113114  1  0  0  0
114115  1  0  0  0
115116  1  0  0  0
115117  2  0  0  0
116118  1  0  0  0
116119  1  0  0  0
120121  1  0  0  0
121122  1  0  0  0
 67 68  1  0  0  0
 67 69  2  0  0  0
 68  1  1  0  0  0
 68 70  1  0  0  0
  1 10  1  0  0  0
  1  2  1  0  0  0
 10 11  1  0  0  0
 10 12  2  0  0  0
 11 14  1  0  0  0
 11 13  1  0  0  0
 14 15  1  0  0  0
 14 59  1  0  0  0
 15 16  1  0  0  0
 15 17  2  0  0  0
 16 19  1  0  0  0
 16 18  1  0  0  0
 19 20  1  0  0  0
 19 52  1  0  0  0
123124  1  0  0  0
124125  1  0  0  0
124126  2  0  0  0
125128  1  0  0  0
125129  1  0  0  0
126127  1  0  0  0
127128  2  0  0  0
127130  1  0  0  0
  2  3  2  0  0  0
  3  4  1  0  0  0
  4  5  2  0  0  0
  5  6  1  0  0  0
  5  8  1  0  0  0
  6  7  2  0  0  0
  7  2  1  0  0  0
  8  9  1  0  0  0
 59 60  1  0  0  0
 60 61  1  0  0  0
 61 62  1  0  0  0
 62 63  1  0  0  0
 63 64  1  0  0  0
 63 65  1  0  0  0
 63 66  1  0  0  0
 20 21  1  0  0  0
 20 22  2  0  0  0
 21 24  1  0  0  0
 21 23  1  0  0  0
 24 25  1  0  0  0
 24 44  1  0  0  0
 25 26  1  0  0  0
 25 27  2  0  0  0
 26 29  1  0  0  0
 26 28  1  0  0  0
 29 30  1  0  0  0
 29 41  1  0  0  0
 30 31  1  0  0  0
 30 33  2  0  0  0
 31 32  1  0  0  0
 31 35  1  0  0  0
 32 37  1  0  0  0
 32 34  1  0  0  0
 37 38  2  0  0  0
 37 39  1  0  0  0
 52 53  1  0  0  0
 53 54  1  0  0  0
 54 55  1  0  0  0
 54 56  2  0  0  0
 55 57  1  0  0  0
 55 58  1  0  0  0
 44 45  1  0  0  0
 45 46  1  0  0  0
 45 47  2  0  0  0
 46 49  1  0  0  0
 46 50  1  0  0  0
 47 48  1  0  0  0
 48 49  2  0  0  0
 48 51  1  0  0  0
 41 42  1  0  0  0
 42 43  1  0  0  0
 39 40  1  0  0  0
 34 36  1  0  0  0
 35 36  1  0  0  0
M  CHG 1  48   1
M  CHG 1  63   1
M  CHG 1  97   1
M  CHG 1 127   1
M  END
> <minimizedAffinity>
-8.65661

$$$$
