


126129  0  0  0  0  0  0  0  0999 V2000
   13.8009   -5.9827  -12.6822 C   0  0  0  0  0  0  0  0  0  0  0  0
   13.4107   -5.6301  -11.8317 C   0  0  0  0  0  0  0  0  0  0  0  0
   13.6889   -4.7332  -11.4880 C   0  0  0  0  0  0  0  0  0  0  0  0
   13.2986   -4.3806  -10.6374 C   0  0  0  0  0  0  0  0  0  0  0  0
   12.6303   -4.9250  -10.1305 C   0  0  0  0  0  0  0  0  0  0  0  0
   12.2401   -4.5724   -9.2800 O   0  0  0  0  0  0  0  0  0  0  0  0
   12.3521   -5.8219  -10.4742 C   0  0  0  0  0  0  0  0  0  0  0  0
   12.7423   -6.1745  -11.3247 C   0  0  0  0  0  0  0  0  0  0  0  0
   12.5007   -3.7319   -8.9580 H   0  0  0  0  0  0  0  0  0  0  0  0
   14.7339   -6.3424  -12.6929 C   0  0  0  0  0  0  0  0  0  0  0  0
   15.0866   -6.8413  -11.9012 O   0  0  0  0  0  0  0  0  0  0  0  0
   15.3142   -6.2032  -13.4953 N   0  0  0  0  0  0  0  0  0  0  0  0
   14.9670   -5.7120  -14.2746 H   0  0  0  0  0  0  0  0  0  0  0  0
   16.2473   -6.5629  -13.5060 C   0  0  0  0  0  0  0  0  0  0  0  0
   16.4190   -7.4986  -13.8142 C   0  0  0  0  0  0  0  0  0  0  0  0
   16.0859   -7.7997  -14.7076 O   0  0  0  0  0  0  0  0  0  0  0  0
   16.9237   -8.1331  -13.2288 N   0  0  0  0  0  0  0  0  0  0  0  0
   17.2516   -7.8366  -12.3492 H   0  0  0  0  0  0  0  0  0  0  0  0
   17.0954   -9.0688  -13.5370 C   0  0  0  0  0  0  0  0  0  0  0  0
   16.4682   -9.8034  -13.2782 C   0  0  0  0  0  0  0  0  0  0  0  0
   15.9393  -10.2799  -13.9806 O   0  0  0  0  0  0  0  0  0  0  0  0
   16.3698  -10.0615  -12.3171 N   0  0  0  0  0  0  0  0  0  0  0  0
   16.8905   -9.5924  -11.6257 H   0  0  0  0  0  0  0  0  0  0  0  0
   15.7426  -10.7961  -12.0583 C   0  0  0  0  0  0  0  0  0  0  0  0
   16.0239  -11.7509  -12.1548 C   0  0  0  0  0  0  0  0  0  0  0  0
   15.4270  -12.4033  -12.6217 O   0  0  0  0  0  0  0  0  0  0  0  0
   16.9022  -12.0532  -11.7844 N   0  0  0  0  0  0  0  0  0  0  0  0
   17.4899  -11.4109  -11.3248 H   0  0  0  0  0  0  0  0  0  0  0  0
   17.1835  -13.0080  -11.8808 C   0  0  0  0  0  0  0  0  0  0  0  0
   18.0070  -13.2366  -12.4001 C   0  0  0  0  0  0  0  0  0  0  0  0
   17.9474  -13.8509  -13.1869 O   0  0  0  0  0  0  0  0  0  0  0  0
   18.8900  -12.8508  -12.1326 N   0  0  0  0  0  0  0  0  0  0  0  0
   19.0521  -12.2304  -11.3653 C   0  0  0  0  0  0  0  0  0  0  0  0
   20.0282  -12.0139  -11.3440 C   0  0  0  0  0  0  0  0  0  0  0  0
   20.4692  -12.5006  -12.0981 C   0  0  0  0  0  0  0  0  0  0  0  0
   19.7658  -13.0178  -12.5855 C   0  0  0  0  0  0  0  0  0  0  0  0
   19.9124  -13.5999  -13.3853 C   0  0  0  0  0  0  0  0  0  0  0  0
   19.9025  -13.2012  -14.3023 O   0  0  0  0  0  0  0  0  0  0  0  0
   20.0688  -14.5806  -13.2681 O   0  0  0  0  0  0  0  0  0  0  0  0
   19.7559  -12.2823  -14.4122 H   0  0  0  0  0  0  0  0  0  0  0  0
   16.6414  -13.7342  -11.4580 C   0  0  0  0  0  0  0  0  0  0  0  0
   16.9378  -14.1409  -10.5939 S   0  0  0  0  0  0  0  0  0  0  0  0
   18.0783  -13.7064   -9.9937 H   0  0  0  0  0  0  0  0  0  0  0  0
   14.8341  -10.5760  -11.7031 C   0  0  0  0  0  0  0  0  0  0  0  0
   14.7417  -10.0696  -10.8458 C   0  0  0  0  0  0  0  0  0  0  0  0
   15.2671  -10.2281  -10.0099 C   0  0  0  0  0  0  0  0  0  0  0  0
   14.9578   -9.5722   -9.3214 N   0  0  0  0  0  0  0  0  0  0  0  0
   14.2410   -9.0083   -9.7317 C   0  0  0  0  0  0  0  0  0  0  0  0
   14.1076   -9.3157  -10.6740 N   0  0  0  0  0  0  0  0  0  0  0  0
   13.4646   -8.9418  -11.3190 H   0  0  0  0  0  0  0  0  0  0  0  0
   17.8942   -9.2699  -14.1039 C   0  0  0  0  0  0  0  0  0  0  0  0
   18.7975   -9.3537  -13.6833 C   0  0  0  0  0  0  0  0  0  0  0  0
   19.6065   -9.4810  -14.2572 C   0  0  0  0  0  0  0  0  0  0  0  0
   20.3753   -8.8454  -14.1857 O   0  0  0  0  0  0  0  0  0  0  0  0
   19.6467  -10.2438  -14.9025 N   0  0  0  0  0  0  0  0  0  0  0  0
   18.8898  -10.8695  -14.9728 H   0  0  0  0  0  0  0  0  0  0  0  0
   20.4431  -10.3692  -15.4675 H   0  0  0  0  0  0  0  0  0  0  0  0
   17.0087   -5.9868  -13.2086 C   0  0  0  0  0  0  0  0  0  0  0  0
   17.2921   -5.2059  -13.7654 C   0  0  0  0  0  0  0  0  0  0  0  0
   18.1722   -4.7630  -13.5943 C   0  0  0  0  0  0  0  0  0  0  0  0
   18.7132   -4.4137  -14.3593 C   0  0  0  0  0  0  0  0  0  0  0  0
   19.3260   -3.6351  -14.2240 N   0  0  0  0  0  0  0  0  0  0  0  0
   19.3991   -3.1972  -13.3057 H   0  0  0  0  0  0  0  0  0  0  0  0
   19.8778   -3.2788  -15.0043 H   0  0  0  0  0  0  0  0  0  0  0  0
   12.7475   -6.7912  -13.7942 C   0  0  0  0  0  0  0  0  0  0  0  0
   12.7796   -7.6139  -13.2266 O   0  0  0  0  0  0  0  0  0  0  0  0
   13.2581   -5.9757  -13.5220 N   0  0  0  0  0  0  0  0  0  0  0  0
   13.2264   -5.1657  -14.0808 H   0  0  0  0  0  0  0  0  0  0  0  0
   12.2047   -6.7841  -14.6340 C   0  0  0  0  0  0  0  0  0  0  0  0
   13.0491   -6.9165  -16.1405 C   0  0  0  0  0  0  0  0  0  0  0  0
   13.1623   -7.8987  -15.9908 O   0  0  0  0  0  0  0  0  0  0  0  0
   12.5703   -6.3592  -15.4621 N   0  0  0  0  0  0  0  0  0  0  0  0
   12.4588   -5.3922  -15.6095 H   0  0  0  0  0  0  0  0  0  0  0  0
   13.4147   -6.4916  -16.9686 C   0  0  0  0  0  0  0  0  0  0  0  0
   14.8678   -5.5536  -17.0607 C   0  0  0  0  0  0  0  0  0  0  0  0
   14.3435   -4.7229  -16.8734 O   0  0  0  0  0  0  0  0  0  0  0  0
   14.4034   -6.4379  -17.1083 N   0  0  0  0  0  0  0  0  0  0  0  0
   14.9196   -7.2557  -17.2927 H   0  0  0  0  0  0  0  0  0  0  0  0
   15.8566   -5.4999  -17.2004 C   0  0  0  0  0  0  0  0  0  0  0  0
   16.2935   -4.6122  -17.3458 C   0  0  0  0  0  0  0  0  0  0  0  0
   17.0664   -6.5029  -17.9285 C   0  0  0  0  0  0  0  0  0  0  0  0
   17.1728   -5.8380  -18.6678 O   0  0  0  0  0  0  0  0  0  0  0  0
   16.4083   -6.3338  -17.1948 N   0  0  0  0  0  0  0  0  0  0  0  0
   16.3037   -6.9884  -16.4669 H   0  0  0  0  0  0  0  0  0  0  0  0
   17.6183   -7.3369  -17.9228 C   0  0  0  0  0  0  0  0  0  0  0  0
   16.8165   -8.7402  -18.5457 C   0  0  0  0  0  0  0  0  0  0  0  0
   16.8869   -8.3693  -19.4717 O   0  0  0  0  0  0  0  0  0  0  0  0
   17.1822   -8.2239  -17.7712 N   0  0  0  0  0  0  0  0  0  0  0  0
   17.1129   -8.5889  -16.8596 H   0  0  0  0  0  0  0  0  0  0  0  0
   16.3804   -9.6272  -18.3941 C   0  0  0  0  0  0  0  0  0  0  0  0
   17.3971  -11.0135  -18.1829 C   0  0  0  0  0  0  0  0  0  0  0  0
   17.5494  -11.0523  -19.1704 O   0  0  0  0  0  0  0  0  0  0  0  0
   16.8126  -10.3009  -17.7947 N   0  0  0  0  0  0  0  0  0  0  0  0
   16.6627  -10.2627  -16.8224 H   0  0  0  0  0  0  0  0  0  0  0  0
   18.7924  -11.5885  -17.3327 N   0  0  0  0  0  0  0  0  0  0  0  0
   17.8294  -11.6872  -17.5834 C   0  0  0  0  0  0  0  0  0  0  0  0
   19.2332  -12.2756  -16.7213 H   0  0  0  0  0  0  0  0  0  0  0  0
   19.3338  -10.8006  -17.6885 H   0  0  0  0  0  0  0  0  0  0  0  0
   17.2986  -12.4596  -17.2347 C   0  0  0  0  0  0  0  0  0  0  0  0
   16.8714  -13.1011  -17.8719 O   0  0  0  0  0  0  0  0  0  0  0  0
   17.1949  -12.5905  -16.2487 C   0  0  0  0  0  0  0  0  0  0  0  0
   16.9719  -12.9740  -18.8283 H   0  0  0  0  0  0  0  0  0  0  0  0
   15.5121   -9.8405  -18.8419 C   0  0  0  0  0  0  0  0  0  0  0  0
   14.6640   -9.8438  -18.3122 C   0  0  0  0  0  0  0  0  0  0  0  0
   13.7972  -10.0687  -18.7575 C   0  0  0  0  0  0  0  0  0  0  0  0
   13.2287   -9.3411  -19.1414 O   0  0  0  0  0  0  0  0  0  0  0  0
   13.4990  -11.0212  -18.8188 N   0  0  0  0  0  0  0  0  0  0  0  0
   14.0587  -11.7375  -18.4408 H   0  0  0  0  0  0  0  0  0  0  0  0
   12.6457  -11.2426  -19.2571 H   0  0  0  0  0  0  0  0  0  0  0  0
   18.6061   -7.2838  -18.0688 C   0  0  0  0  0  0  0  0  0  0  0  0
   19.2345   -7.5435  -17.3356 C   0  0  0  0  0  0  0  0  0  0  0  0
   20.1542   -7.8679  -17.5568 C   0  0  0  0  0  0  0  0  0  0  0  0
   20.3258   -8.8468  -17.6682 O   0  0  0  0  0  0  0  0  0  0  0  0
   20.9024   -7.2134  -17.6667 N   0  0  0  0  0  0  0  0  0  0  0  0
   20.7334   -6.2498  -17.5570 H   0  0  0  0  0  0  0  0  0  0  0  0
   21.8078   -7.5329  -17.8845 H   0  0  0  0  0  0  0  0  0  0  0  0
   12.7916   -6.1203  -17.6569 C   0  0  0  0  0  0  0  0  0  0  0  0
   12.3104   -6.7368  -18.2802 O   0  0  0  0  0  0  0  0  0  0  0  0
   11.7059   -6.3766  -18.9480 H   0  0  0  0  0  0  0  0  0  0  0  0
   11.2962   -7.2020  -14.6457 C   0  0  0  0  0  0  0  0  0  0  0  0
   10.4800   -6.6254  -14.6083 C   0  0  0  0  0  0  0  0  0  0  0  0
    9.9252   -6.3407  -15.3900 C   0  0  0  0  0  0  0  0  0  0  0  0
    9.1776   -5.7715  -15.0475 N   0  0  0  0  0  0  0  0  0  0  0  0
    9.2706   -5.7045  -14.0540 C   0  0  0  0  0  0  0  0  0  0  0  0
   10.0755   -6.2322  -13.7827 N   0  0  0  0  0  0  0  0  0  0  0  0
   10.4109   -6.3448  -12.8639 H   0  0  0  0  0  0  0  0  0  0  0  0
 95 96  1  0  0  0
 95 97  1  0  0  0
 95 98  1  0  0  0
 96 91  1  0  0  0
 96 99  1  0  0  0
 91 92  2  0  0  0
 91 93  1  0  0  0
 93 90  1  0  0  0
 93 94  1  0  0  0
 90103  1  0  0  0
 90 86  1  0  0  0
103104  1  0  0  0
104105  1  0  0  0
105106  2  0  0  0
105107  1  0  0  0
107108  1  0  0  0
107109  1  0  0  0
 86 87  2  0  0  0
 86 88  1  0  0  0
 88 85  1  0  0  0
 88 89  1  0  0  0
 85110  1  0  0  0
 85 81  1  0  0  0
110111  1  0  0  0
111112  1  0  0  0
112113  2  0  0  0
112114  1  0  0  0
114115  1  0  0  0
114116  1  0  0  0
 81 82  2  0  0  0
 81 83  1  0  0  0
 83 79  1  0  0  0
 83 84  1  0  0  0
 79 80  1  0  0  0
 79 75  1  0  0  0
 75 76  2  0  0  0
 75 77  1  0  0  0
 77 74  1  0  0  0
 77 78  1  0  0  0
 74117  1  0  0  0
 74 70  1  0  0  0
117118  1  0  0  0
118119  1  0  0  0
 70 71  2  0  0  0
 70 72  1  0  0  0
 72 69  1  0  0  0
 72 73  1  0  0  0
 69120  1  0  0  0
 69 65  1  0  0  0
120121  1  0  0  0
121125  1  0  0  0
121122  2  0  0  0
122123  1  0  0  0
123124  2  0  0  0
124125  1  0  0  0
125126  1  0  0  0
 65 66  2  0  0  0
 65 67  1  0  0  0
 67  1  1  0  0  0
 67 68  1  0  0  0
  1  2  1  0  0  0
  1 10  1  0  0  0
  2  8  2  0  0  0
  2  3  1  0  0  0
  3  4  2  0  0  0
  4  5  1  0  0  0
  5  6  1  0  0  0
  5  7  2  0  0  0
  6  9  1  0  0  0
  7  8  1  0  0  0
 10 11  2  0  0  0
 10 12  1  0  0  0
 12 14  1  0  0  0
 12 13  1  0  0  0
 14 58  1  0  0  0
 14 15  1  0  0  0
 58 59  1  0  0  0
 59 60  1  0  0  0
 60 61  1  0  0  0
 61 62  1  0  0  0
 62 63  1  0  0  0
 62 64  1  0  0  0
 15 16  2  0  0  0
 15 17  1  0  0  0
 17 19  1  0  0  0
 17 18  1  0  0  0
 19 51  1  0  0  0
 19 20  1  0  0  0
 51 52  1  0  0  0
 52 53  1  0  0  0
 53 54  2  0  0  0
 53 55  1  0  0  0
 55 56  1  0  0  0
 55 57  1  0  0  0
 20 21  2  0  0  0
 20 22  1  0  0  0
 22 24  1  0  0  0
 22 23  1  0  0  0
 24 44  1  0  0  0
 24 25  1  0  0  0
 44 45  1  0  0  0
 45 49  1  0  0  0
 45 46  2  0  0  0
 46 47  1  0  0  0
 47 48  2  0  0  0
 48 49  1  0  0  0
 49 50  1  0  0  0
 25 26  2  0  0  0
 25 27  1  0  0  0
 27 29  1  0  0  0
 27 28  1  0  0  0
 29 41  1  0  0  0
 29 30  1  0  0  0
 41 42  1  0  0  0
 42 43  1  0  0  0
 30 31  2  0  0  0
 30 32  1  0  0  0
 32 36  1  0  0  0
 32 33  1  0  0  0
 33 34  1  0  0  0
 34 35  1  0  0  0
 35 36  1  0  0  0
 36 37  1  0  0  0
 37 38  1  0  0  0
 37 39  2  0  0  0
 38 40  1  0  0  0
 99100  1  0  0  0
 99101  1  0  0  0
100102  1  0  0  0
M  END
> <minimizedAffinity>
-4.77034

$$$$



126129  0  0  0  0  0  0  0  0999 V2000
   35.9204   -9.3213   -7.3802 C   0  0  0  0  0  0  0  0  0  0  0  0
   36.3602   -8.5808   -6.8721 C   0  0  0  0  0  0  0  0  0  0  0  0
   35.8074   -7.9538   -6.3233 C   0  0  0  0  0  0  0  0  0  0  0  0
   36.2473   -7.2132   -5.8152 C   0  0  0  0  0  0  0  0  0  0  0  0
   37.2400   -7.0997   -5.8559 C   0  0  0  0  0  0  0  0  0  0  0  0
   37.6798   -6.3592   -5.3478 O   0  0  0  0  0  0  0  0  0  0  0  0
   37.7928   -7.7268   -6.4047 C   0  0  0  0  0  0  0  0  0  0  0  0
   37.3530   -8.4673   -6.9127 C   0  0  0  0  0  0  0  0  0  0  0  0
   37.1617   -5.7717   -4.8336 H   0  0  0  0  0  0  0  0  0  0  0  0
   35.6883  -10.1765   -6.9168 C   0  0  0  0  0  0  0  0  0  0  0  0
   35.3987  -10.1641   -5.9598 O   0  0  0  0  0  0  0  0  0  0  0  0
   35.7458  -11.0442   -7.4106 N   0  0  0  0  0  0  0  0  0  0  0  0
   36.0309  -11.0565   -8.3528 H   0  0  0  0  0  0  0  0  0  0  0  0
   35.5137  -11.8995   -6.9472 C   0  0  0  0  0  0  0  0  0  0  0  0
   34.6275  -12.3328   -7.1116 C   0  0  0  0  0  0  0  0  0  0  0  0
   34.5438  -13.0549   -7.7982 O   0  0  0  0  0  0  0  0  0  0  0  0
   33.8251  -12.0438   -6.5895 N   0  0  0  0  0  0  0  0  0  0  0  0
   33.9076  -11.3329   -5.9135 H   0  0  0  0  0  0  0  0  0  0  0  0
   32.9390  -12.4770   -6.7539 C   0  0  0  0  0  0  0  0  0  0  0  0
   32.6682  -13.2792   -6.2217 C   0  0  0  0  0  0  0  0  0  0  0  0
   32.8509  -13.3123   -5.2391 O   0  0  0  0  0  0  0  0  0  0  0  0
   32.2147  -14.0483   -6.6721 N   0  0  0  0  0  0  0  0  0  0  0  0
   32.0348  -14.0157   -7.6395 H   0  0  0  0  0  0  0  0  0  0  0  0
   31.9439  -14.8504   -6.1399 C   0  0  0  0  0  0  0  0  0  0  0  0
   32.5288  -15.6614   -6.1252 C   0  0  0  0  0  0  0  0  0  0  0  0
   32.5494  -16.2482   -5.3158 O   0  0  0  0  0  0  0  0  0  0  0  0
   33.0930  -15.8855   -6.9198 N   0  0  0  0  0  0  0  0  0  0  0  0
   33.0726  -15.3077   -7.7166 H   0  0  0  0  0  0  0  0  0  0  0  0
   33.6779  -16.6964   -6.9050 C   0  0  0  0  0  0  0  0  0  0  0  0
   34.6193  -16.6400   -7.2375 C   0  0  0  0  0  0  0  0  0  0  0  0
   34.8102  -16.7257   -8.2154 O   0  0  0  0  0  0  0  0  0  0  0  0
   35.3699  -16.4979   -6.5921 N   0  0  0  0  0  0  0  0  0  0  0  0
   35.2820  -16.4007   -5.6007 C   0  0  0  0  0  0  0  0  0  0  0  0
   36.1979  -16.2707   -5.2207 C   0  0  0  0  0  0  0  0  0  0  0  0
   36.8516  -16.2877   -5.9773 C   0  0  0  0  0  0  0  0  0  0  0  0
   36.3399  -16.4281   -6.8248 C   0  0  0  0  0  0  0  0  0  0  0  0
   36.7297  -16.4881   -7.7437 C   0  0  0  0  0  0  0  0  0  0  0  0
   36.8394  -15.6612   -8.2953 O   0  0  0  0  0  0  0  0  0  0  0  0
   37.0098  -17.3750   -8.1110 O   0  0  0  0  0  0  0  0  0  0  0  0
   36.5769  -14.8302   -7.9511 H   0  0  0  0  0  0  0  0  0  0  0  0
   33.3214  -17.5638   -6.5578 C   0  0  0  0  0  0  0  0  0  0  0  0
   32.9696  -18.2504   -7.1940 S   0  0  0  0  0  0  0  0  0  0  0  0
   32.9759  -18.0046   -8.5316 H   0  0  0  0  0  0  0  0  0  0  0  0
   31.0882  -14.8416   -5.6225 C   0  0  0  0  0  0  0  0  0  0  0  0
   30.2335  -15.1129   -6.0651 C   0  0  0  0  0  0  0  0  0  0  0  0
   29.5890  -14.5010   -6.5238 C   0  0  0  0  0  0  0  0  0  0  0  0
   28.8304  -15.0536   -6.8688 N   0  0  0  0  0  0  0  0  0  0  0  0
   29.0059  -16.0071   -6.6234 C   0  0  0  0  0  0  0  0  0  0  0  0
   29.8731  -16.0436   -6.1266 N   0  0  0  0  0  0  0  0  0  0  0  0
   30.2974  -16.8538   -5.7622 H   0  0  0  0  0  0  0  0  0  0  0  0
   32.3236  -12.1081   -7.4505 C   0  0  0  0  0  0  0  0  0  0  0  0
   31.8595  -11.2359   -7.2963 C   0  0  0  0  0  0  0  0  0  0  0  0
   31.1603  -10.9213   -7.9383 C   0  0  0  0  0  0  0  0  0  0  0  0
   31.2809  -11.0676   -8.9202 O   0  0  0  0  0  0  0  0  0  0  0  0
   30.3405  -10.4604   -7.5985 N   0  0  0  0  0  0  0  0  0  0  0  0
   30.2218  -10.3165   -6.6318 H   0  0  0  0  0  0  0  0  0  0  0  0
   29.6522  -10.1507   -8.2305 H   0  0  0  0  0  0  0  0  0  0  0  0
   36.1677  -12.3216   -6.3195 C   0  0  0  0  0  0  0  0  0  0  0  0
   37.0483  -12.6501   -6.6613 C   0  0  0  0  0  0  0  0  0  0  0  0
   37.7929  -12.8416   -6.0218 C   0  0  0  0  0  0  0  0  0  0  0  0
   38.6811  -13.1465   -6.3655 C   0  0  0  0  0  0  0  0  0  0  0  0
   39.3625  -13.5144   -5.7328 N   0  0  0  0  0  0  0  0  0  0  0  0
   39.1516  -13.5787   -4.7369 H   0  0  0  0  0  0  0  0  0  0  0  0
   40.2685  -13.8254   -6.0833 H   0  0  0  0  0  0  0  0  0  0  0  0
   34.7711   -9.0423   -8.6456 C   0  0  0  0  0  0  0  0  0  0  0  0
   34.0372   -8.9927   -7.9681 O   0  0  0  0  0  0  0  0  0  0  0  0
   35.7127   -9.2066   -8.3516 N   0  0  0  0  0  0  0  0  0  0  0  0
   36.4352   -9.2555   -9.0186 H   0  0  0  0  0  0  0  0  0  0  0  0
   34.5634   -8.9276   -9.6171 C   0  0  0  0  0  0  0  0  0  0  0  0
   34.2567  -10.3435  -10.5664 C   0  0  0  0  0  0  0  0  0  0  0  0
   35.2392  -10.5231  -10.6160 O   0  0  0  0  0  0  0  0  0  0  0  0
   33.9188   -9.5458  -10.0669 N   0  0  0  0  0  0  0  0  0  0  0  0
   32.9516   -9.3689  -10.0181 H   0  0  0  0  0  0  0  0  0  0  0  0
   33.6121  -10.9616  -11.0162 C   0  0  0  0  0  0  0  0  0  0  0  0
   32.5787  -10.5333  -12.3386 C   0  0  0  0  0  0  0  0  0  0  0  0
   33.2933  -10.8025  -12.9842 O   0  0  0  0  0  0  0  0  0  0  0  0
   32.7381  -10.6129  -11.3546 N   0  0  0  0  0  0  0  0  0  0  0  0
   32.0346  -10.3479  -10.7189 H   0  0  0  0  0  0  0  0  0  0  0  0
   31.7047  -10.1845  -12.6769 C   0  0  0  0  0  0  0  0  0  0  0  0
   31.6856   -9.5412  -13.4423 C   0  0  0  0  0  0  0  0  0  0  0  0
   30.1560  -10.9510  -12.7939 C   0  0  0  0  0  0  0  0  0  0  0  0
   30.3170  -11.1284  -13.7647 O   0  0  0  0  0  0  0  0  0  0  0  0
   30.8498  -10.4791  -12.2500 N   0  0  0  0  0  0  0  0  0  0  0  0
   30.6912  -10.3045  -11.2941 H   0  0  0  0  0  0  0  0  0  0  0  0
   29.3010  -11.2456  -12.3669 C   0  0  0  0  0  0  0  0  0  0  0  0
   29.2081  -12.7116  -11.4492 C   0  0  0  0  0  0  0  0  0  0  0  0
   29.0792  -13.2319  -12.2934 O   0  0  0  0  0  0  0  0  0  0  0  0
   29.3190  -11.7185  -11.4859 N   0  0  0  0  0  0  0  0  0  0  0  0
   29.4460  -11.2063  -10.6549 H   0  0  0  0  0  0  0  0  0  0  0  0
   29.2262  -13.1845  -10.5682 C   0  0  0  0  0  0  0  0  0  0  0  0
   27.7591  -12.9305   -9.6833 C   0  0  0  0  0  0  0  0  0  0  0  0
   27.2543  -13.4533  -10.3702 O   0  0  0  0  0  0  0  0  0  0  0  0
   28.7451  -12.7961   -9.7823 N   0  0  0  0  0  0  0  0  0  0  0  0
   29.2422  -12.2814   -9.1061 H   0  0  0  0  0  0  0  0  0  0  0  0
   27.5856  -11.6774   -8.5002 N   0  0  0  0  0  0  0  0  0  0  0  0
   27.2780  -12.5421   -8.8973 C   0  0  0  0  0  0  0  0  0  0  0  0
   27.0950  -11.2812   -7.6985 H   0  0  0  0  0  0  0  0  0  0  0  0
   28.3901  -11.1917   -8.8968 H   0  0  0  0  0  0  0  0  0  0  0  0
   26.4893  -13.0183   -8.5085 C   0  0  0  0  0  0  0  0  0  0  0  0
   26.5708  -13.9750   -8.2291 O   0  0  0  0  0  0  0  0  0  0  0  0
   25.6192  -12.5378   -8.3991 C   0  0  0  0  0  0  0  0  0  0  0  0
   27.4149  -14.4411   -8.3353 H   0  0  0  0  0  0  0  0  0  0  0  0
   29.7254  -14.0457  -10.4732 C   0  0  0  0  0  0  0  0  0  0  0  0
   30.5615  -14.0812   -9.9258 C   0  0  0  0  0  0  0  0  0  0  0  0
   31.0317  -14.9529   -9.7870 C   0  0  0  0  0  0  0  0  0  0  0  0
   32.0203  -14.9695   -9.6376 O   0  0  0  0  0  0  0  0  0  0  0  0
   30.5132  -15.8079   -9.7976 N   0  0  0  0  0  0  0  0  0  0  0  0
   29.5399  -15.7915   -9.9446 H   0  0  0  0  0  0  0  0  0  0  0  0
   30.9760  -16.6659   -9.6609 H   0  0  0  0  0  0  0  0  0  0  0  0
   28.4280  -11.0674  -12.8209 C   0  0  0  0  0  0  0  0  0  0  0  0
   27.8286  -10.3412  -12.4843 C   0  0  0  0  0  0  0  0  0  0  0  0
   26.8839  -10.2828  -12.8072 C   0  0  0  0  0  0  0  0  0  0  0  0
   26.6950  -10.0481  -13.7607 O   0  0  0  0  0  0  0  0  0  0  0  0
   26.1281  -10.4591  -12.1765 N   0  0  0  0  0  0  0  0  0  0  0  0
   26.3141  -10.6902  -11.2377 H   0  0  0  0  0  0  0  0  0  0  0  0
   25.1981  -10.4017  -12.4943 H   0  0  0  0  0  0  0  0  0  0  0  0
   33.8415  -11.9285  -11.1277 C   0  0  0  0  0  0  0  0  0  0  0  0
   33.5193  -12.5992  -10.4596 O   0  0  0  0  0  0  0  0  0  0  0  0
   33.7418  -13.5371  -10.5678 H   0  0  0  0  0  0  0  0  0  0  0  0
   35.0004   -8.1947  -10.1386 C   0  0  0  0  0  0  0  0  0  0  0  0
   34.5314   -7.3200  -10.2611 C   0  0  0  0  0  0  0  0  0  0  0  0
   34.8123   -6.4430   -9.8715 C   0  0  0  0  0  0  0  0  0  0  0  0
   34.1538   -5.7496  -10.1642 N   0  0  0  0  0  0  0  0  0  0  0  0
   33.4659   -6.1983  -10.7348 C   0  0  0  0  0  0  0  0  0  0  0  0
   33.6994   -7.1689  -10.7946 N   0  0  0  0  0  0  0  0  0  0  0  0
   33.1979   -7.8551  -11.2916 H   0  0  0  0  0  0  0  0  0  0  0  0
 95 96  1  0  0  0
 95 97  1  0  0  0
 95 98  1  0  0  0
 96 91  1  0  0  0
 96 99  1  0  0  0
 91 92  2  0  0  0
 91 93  1  0  0  0
 93 90  1  0  0  0
 93 94  1  0  0  0
 90103  1  0  0  0
 90 86  1  0  0  0
103104  1  0  0  0
104105  1  0  0  0
105106  2  0  0  0
105107  1  0  0  0
107108  1  0  0  0
107109  1  0  0  0
 86 87  2  0  0  0
 86 88  1  0  0  0
 88 85  1  0  0  0
 88 89  1  0  0  0
 85110  1  0  0  0
 85 81  1  0  0  0
110111  1  0  0  0
111112  1  0  0  0
112113  2  0  0  0
112114  1  0  0  0
114115  1  0  0  0
114116  1  0  0  0
 81 82  2  0  0  0
 81 83  1  0  0  0
 83 79  1  0  0  0
 83 84  1  0  0  0
 79 80  1  0  0  0
 79 75  1  0  0  0
 75 76  2  0  0  0
 75 77  1  0  0  0
 77 74  1  0  0  0
 77 78  1  0  0  0
 74117  1  0  0  0
 74 70  1  0  0  0
117118  1  0  0  0
118119  1  0  0  0
 70 71  2  0  0  0
 70 72  1  0  0  0
 72 69  1  0  0  0
 72 73  1  0  0  0
 69120  1  0  0  0
 69 65  1  0  0  0
120121  1  0  0  0
121125  1  0  0  0
121122  2  0  0  0
122123  1  0  0  0
123124  2  0  0  0
124125  1  0  0  0
125126  1  0  0  0
 65 66  2  0  0  0
 65 67  1  0  0  0
 67  1  1  0  0  0
 67 68  1  0  0  0
  1  2  1  0  0  0
  1 10  1  0  0  0
  2  8  2  0  0  0
  2  3  1  0  0  0
  3  4  2  0  0  0
  4  5  1  0  0  0
  5  6  1  0  0  0
  5  7  2  0  0  0
  6  9  1  0  0  0
  7  8  1  0  0  0
 10 11  2  0  0  0
 10 12  1  0  0  0
 12 14  1  0  0  0
 12 13  1  0  0  0
 14 58  1  0  0  0
 14 15  1  0  0  0
 58 59  1  0  0  0
 59 60  1  0  0  0
 60 61  1  0  0  0
 61 62  1  0  0  0
 62 63  1  0  0  0
 62 64  1  0  0  0
 15 16  2  0  0  0
 15 17  1  0  0  0
 17 19  1  0  0  0
 17 18  1  0  0  0
 19 51  1  0  0  0
 19 20  1  0  0  0
 51 52  1  0  0  0
 52 53  1  0  0  0
 53 54  2  0  0  0
 53 55  1  0  0  0
 55 56  1  0  0  0
 55 57  1  0  0  0
 20 21  2  0  0  0
 20 22  1  0  0  0
 22 24  1  0  0  0
 22 23  1  0  0  0
 24 44  1  0  0  0
 24 25  1  0  0  0
 44 45  1  0  0  0
 45 49  1  0  0  0
 45 46  2  0  0  0
 46 47  1  0  0  0
 47 48  2  0  0  0
 48 49  1  0  0  0
 49 50  1  0  0  0
 25 26  2  0  0  0
 25 27  1  0  0  0
 27 29  1  0  0  0
 27 28  1  0  0  0
 29 41  1  0  0  0
 29 30  1  0  0  0
 41 42  1  0  0  0
 42 43  1  0  0  0
 30 31  2  0  0  0
 30 32  1  0  0  0
 32 36  1  0  0  0
 32 33  1  0  0  0
 33 34  1  0  0  0
 34 35  1  0  0  0
 35 36  1  0  0  0
 36 37  1  0  0  0
 37 38  1  0  0  0
 37 39  2  0  0  0
 38 40  1  0  0  0
 99100  1  0  0  0
 99101  1  0  0  0
100102  1  0  0  0
M  END
> <minimizedAffinity>
-4.73079

$$$$



126129  0  0  0  0  0  0  0  0999 V2000
   15.3532    6.1030    9.0064 C   0  0  0  0  0  0  0  0  0  0  0  0
   14.6982    5.3699    8.8233 C   0  0  0  0  0  0  0  0  0  0  0  0
   13.7211    5.5242    8.9696 C   0  0  0  0  0  0  0  0  0  0  0  0
   13.0661    4.7910    8.7864 C   0  0  0  0  0  0  0  0  0  0  0  0
   13.3883    3.9035    8.4569 C   0  0  0  0  0  0  0  0  0  0  0  0
   12.7334    3.1704    8.2738 O   0  0  0  0  0  0  0  0  0  0  0  0
   14.3654    3.7492    8.3106 C   0  0  0  0  0  0  0  0  0  0  0  0
   15.0204    4.4823    8.4938 C   0  0  0  0  0  0  0  0  0  0  0  0
   11.8178    3.3151    8.4108 H   0  0  0  0  0  0  0  0  0  0  0  0
   15.8832    6.0995    9.8544 C   0  0  0  0  0  0  0  0  0  0  0  0
   16.3191    5.2560   10.1682 O   0  0  0  0  0  0  0  0  0  0  0  0
   15.9775    6.9396   10.3885 N   0  0  0  0  0  0  0  0  0  0  0  0
   15.5484    7.7701   10.0796 H   0  0  0  0  0  0  0  0  0  0  0  0
   16.5076    6.9363   11.2365 C   0  0  0  0  0  0  0  0  0  0  0  0
   16.0383    6.9374   12.1195 C   0  0  0  0  0  0  0  0  0  0  0  0
   16.4014    6.3981   12.8793 O   0  0  0  0  0  0  0  0  0  0  0  0
   15.2059    7.4777   12.2427 N   0  0  0  0  0  0  0  0  0  0  0  0
   14.8485    8.0085   11.4946 H   0  0  0  0  0  0  0  0  0  0  0  0
   14.7366    7.4788   13.1257 C   0  0  0  0  0  0  0  0  0  0  0  0
   14.8232    8.2655   13.7369 C   0  0  0  0  0  0  0  0  0  0  0  0
   14.7113    8.1469   14.7236 O   0  0  0  0  0  0  0  0  0  0  0  0
   15.0218    9.1709   13.3616 N   0  0  0  0  0  0  0  0  0  0  0  0
   15.1319    9.2877   12.3902 H   0  0  0  0  0  0  0  0  0  0  0  0
   15.1083    9.9576   13.9728 C   0  0  0  0  0  0  0  0  0  0  0  0
   14.3189   10.5471   14.1438 C   0  0  0  0  0  0  0  0  0  0  0  0
   14.0551   10.7696   15.0824 O   0  0  0  0  0  0  0  0  0  0  0  0
   13.7934   10.9142   13.3763 N   0  0  0  0  0  0  0  0  0  0  0  0
   14.0532   10.6951   12.4524 H   0  0  0  0  0  0  0  0  0  0  0  0
   13.0040   11.5037   13.5474 C   0  0  0  0  0  0  0  0  0  0  0  0
   13.1014   12.4976   13.4949 C   0  0  0  0  0  0  0  0  0  0  0  0
   12.7291   13.0755   14.2211 O   0  0  0  0  0  0  0  0  0  0  0  0
   13.5712   12.9135   12.7162 N   0  0  0  0  0  0  0  0  0  0  0  0
   13.9758   12.4237   11.9439 C   0  0  0  0  0  0  0  0  0  0  0  0
   14.3735   13.0998   11.3235 C   0  0  0  0  0  0  0  0  0  0  0  0
   14.2148   14.0072   11.7125 C   0  0  0  0  0  0  0  0  0  0  0  0
   13.7190   13.8921   12.5732 C   0  0  0  0  0  0  0  0  0  0  0  0
   13.4228   14.6266   13.1837 C   0  0  0  0  0  0  0  0  0  0  0  0
   14.0311   14.9501   13.9086 O   0  0  0  0  0  0  0  0  0  0  0  0
   12.5184   15.0377   13.0694 O   0  0  0  0  0  0  0  0  0  0  0  0
   14.8785   14.5648   14.0157 H   0  0  0  0  0  0  0  0  0  0  0  0
   12.1170   11.0994   13.7709 C   0  0  0  0  0  0  0  0  0  0  0  0
   11.6108   10.5888   13.0759 S   0  0  0  0  0  0  0  0  0  0  0  0
   12.1286   10.4442   11.8266 H   0  0  0  0  0  0  0  0  0  0  0  0
   15.9843   10.1548   14.4129 C   0  0  0  0  0  0  0  0  0  0  0  0
   16.6606   10.7255   13.9473 C   0  0  0  0  0  0  0  0  0  0  0  0
   17.3070   10.4193   13.2484 C   0  0  0  0  0  0  0  0  0  0  0  0
   17.8552   11.2072   12.9679 N   0  0  0  0  0  0  0  0  0  0  0  0
   17.5476   12.0005   13.4935 C   0  0  0  0  0  0  0  0  0  0  0  0
   16.8093   11.7027   14.0988 N   0  0  0  0  0  0  0  0  0  0  0  0
   16.3157   12.2718   14.7325 H   0  0  0  0  0  0  0  0  0  0  0  0
   14.1808    6.6932   13.3976 C   0  0  0  0  0  0  0  0  0  0  0  0
   13.3103    6.5141   12.9392 C   0  0  0  0  0  0  0  0  0  0  0  0
   12.8139    5.6656   13.1227 C   0  0  0  0  0  0  0  0  0  0  0  0
   12.3546    5.5351   14.0014 O   0  0  0  0  0  0  0  0  0  0  0  0
   12.7768    4.9477   12.4276 N   0  0  0  0  0  0  0  0  0  0  0  0
   13.2290    5.0762   11.5626 H   0  0  0  0  0  0  0  0  0  0  0  0
   12.2880    4.1124   12.6083 H   0  0  0  0  0  0  0  0  0  0  0  0
   17.5069    6.9318   11.2014 C   0  0  0  0  0  0  0  0  0  0  0  0
   18.0051    7.7820   11.0309 C   0  0  0  0  0  0  0  0  0  0  0  0
   18.9704    7.7525   10.7716 C   0  0  0  0  0  0  0  0  0  0  0  0
   19.5066    8.5962   10.7433 C   0  0  0  0  0  0  0  0  0  0  0  0
   19.8962    8.9121    9.8782 N   0  0  0  0  0  0  0  0  0  0  0  0
   19.7468    8.3739    9.0247 H   0  0  0  0  0  0  0  0  0  0  0  0
   20.4431    9.7726    9.8493 H   0  0  0  0  0  0  0  0  0  0  0  0
   16.3000    6.8655    7.7728 C   0  0  0  0  0  0  0  0  0  0  0  0
   16.9972    6.1550    7.8686 O   0  0  0  0  0  0  0  0  0  0  0  0
   15.4781    6.8395    8.3417 N   0  0  0  0  0  0  0  0  0  0  0  0
   14.7918    7.5390    8.2474 H   0  0  0  0  0  0  0  0  0  0  0  0
   16.4249    7.6021    7.1080 C   0  0  0  0  0  0  0  0  0  0  0  0
   15.6952    7.3313    5.5607 C   0  0  0  0  0  0  0  0  0  0  0  0
   16.4039    6.6600    5.3439 O   0  0  0  0  0  0  0  0  0  0  0  0
   15.7057    7.8024    6.4427 N   0  0  0  0  0  0  0  0  0  0  0  0
   15.0080    8.4634    6.6561 H   0  0  0  0  0  0  0  0  0  0  0  0
   14.9761    7.5317    4.8954 C   0  0  0  0  0  0  0  0  0  0  0  0
   13.3716    6.8892    5.0092 C   0  0  0  0  0  0  0  0  0  0  0  0
   13.6657    6.0682    4.5200 O   0  0  0  0  0  0  0  0  0  0  0  0
   14.0268    7.6210    5.1969 N   0  0  0  0  0  0  0  0  0  0  0  0
   13.7373    8.4293    5.6785 H   0  0  0  0  0  0  0  0  0  0  0  0
   12.4223    6.9786    5.3107 C   0  0  0  0  0  0  0  0  0  0  0  0
   11.6780    6.6770    4.7148 C   0  0  0  0  0  0  0  0  0  0  0  0
   11.6505    8.1902    6.2781 C   0  0  0  0  0  0  0  0  0  0  0  0
   11.2886    8.6202    5.4510 O   0  0  0  0  0  0  0  0  0  0  0  0
   12.2174    7.3694    6.2080 N   0  0  0  0  0  0  0  0  0  0  0  0
   12.5737    6.9462    7.0223 H   0  0  0  0  0  0  0  0  0  0  0  0
   11.4455    8.5812    7.1755 C   0  0  0  0  0  0  0  0  0  0  0  0
   12.4495    9.8947    7.6918 C   0  0  0  0  0  0  0  0  0  0  0  0
   13.1905    9.2519    7.8860 O   0  0  0  0  0  0  0  0  0  0  0  0
   11.5770    9.5593    7.3366 N   0  0  0  0  0  0  0  0  0  0  0  0
   10.8474   10.1921    7.1454 H   0  0  0  0  0  0  0  0  0  0  0  0
   12.5810   10.8728    7.8529 C   0  0  0  0  0  0  0  0  0  0  0  0
   11.5780   11.5528    9.0905 C   0  0  0  0  0  0  0  0  0  0  0  0
   12.1256   11.0908    9.7881 O   0  0  0  0  0  0  0  0  0  0  0  0
   11.8057   11.4438    8.1229 N   0  0  0  0  0  0  0  0  0  0  0  0
   11.2666   11.8986    7.4360 H   0  0  0  0  0  0  0  0  0  0  0  0
    9.8681   11.8081    9.1960 N   0  0  0  0  0  0  0  0  0  0  0  0
   10.8026   12.1237    9.3605 C   0  0  0  0  0  0  0  0  0  0  0  0
    9.0773   12.3904    9.4713 H   0  0  0  0  0  0  0  0  0  0  0  0
    9.7058   10.9038    8.7529 H   0  0  0  0  0  0  0  0  0  0  0  0
   10.9618   13.0103    9.7949 C   0  0  0  0  0  0  0  0  0  0  0  0
   11.5519   13.6853    9.3521 O   0  0  0  0  0  0  0  0  0  0  0  0
   10.5309   13.2217   10.6722 C   0  0  0  0  0  0  0  0  0  0  0  0
   11.9698   13.4802    8.5011 H   0  0  0  0  0  0  0  0  0  0  0  0
   13.4878   11.2801    7.7440 C   0  0  0  0  0  0  0  0  0  0  0  0
   13.6693   11.8992    6.9800 C   0  0  0  0  0  0  0  0  0  0  0  0
   14.3599   12.6168    7.0712 C   0  0  0  0  0  0  0  0  0  0  0  0
   14.3431   13.2295    7.8613 O   0  0  0  0  0  0  0  0  0  0  0  0
   15.0673   12.7216    6.3721 N   0  0  0  0  0  0  0  0  0  0  0  0
   15.0838   12.1184    5.5943 H   0  0  0  0  0  0  0  0  0  0  0  0
   15.7471   13.4280    6.4619 H   0  0  0  0  0  0  0  0  0  0  0  0
   11.1091    7.9940    7.9117 C   0  0  0  0  0  0  0  0  0  0  0  0
   10.1739    8.1013    8.2490 C   0  0  0  0  0  0  0  0  0  0  0  0
    9.8740    7.5987    9.0598 C   0  0  0  0  0  0  0  0  0  0  0  0
    8.9658    7.1809    9.0817 O   0  0  0  0  0  0  0  0  0  0  0  0
   10.4825    7.5139    9.8489 N   0  0  0  0  0  0  0  0  0  0  0  0
   11.3767    7.9253    9.8274 H   0  0  0  0  0  0  0  0  0  0  0  0
   10.1873    7.0191   10.6473 H   0  0  0  0  0  0  0  0  0  0  0  0
   15.2062    7.6427    3.9286 C   0  0  0  0  0  0  0  0  0  0  0  0
   15.4305    8.5483    3.5688 O   0  0  0  0  0  0  0  0  0  0  0  0
   15.6538    8.6560    2.6309 H   0  0  0  0  0  0  0  0  0  0  0  0
   17.2690    8.1383    7.1086 C   0  0  0  0  0  0  0  0  0  0  0  0
   17.2476    9.1043    7.3664 C   0  0  0  0  0  0  0  0  0  0  0  0
   17.4154    9.8791    6.7570 C   0  0  0  0  0  0  0  0  0  0  0  0
   17.3261   10.7188    7.2928 N   0  0  0  0  0  0  0  0  0  0  0  0
   17.1032   10.4627    8.2335 C   0  0  0  0  0  0  0  0  0  0  0  0
   17.0547    9.4649    8.2788 N   0  0  0  0  0  0  0  0  0  0  0  0
   16.8524    8.9314    9.0811 H   0  0  0  0  0  0  0  0  0  0  0  0
 95 96  1  0  0  0
 95 97  1  0  0  0
 95 98  1  0  0  0
 96 91  1  0  0  0
 96 99  1  0  0  0
 91 92  2  0  0  0
 91 93  1  0  0  0
 93 90  1  0  0  0
 93 94  1  0  0  0
 90103  1  0  0  0
 90 86  1  0  0  0
103104  1  0  0  0
104105  1  0  0  0
105106  2  0  0  0
105107  1  0  0  0
107108  1  0  0  0
107109  1  0  0  0
 86 87  2  0  0  0
 86 88  1  0  0  0
 88 85  1  0  0  0
 88 89  1  0  0  0
 85110  1  0  0  0
 85 81  1  0  0  0
110111  1  0  0  0
111112  1  0  0  0
112113  2  0  0  0
112114  1  0  0  0
114115  1  0  0  0
114116  1  0  0  0
 81 82  2  0  0  0
 81 83  1  0  0  0
 83 79  1  0  0  0
 83 84  1  0  0  0
 79 80  1  0  0  0
 79 75  1  0  0  0
 75 76  2  0  0  0
 75 77  1  0  0  0
 77 74  1  0  0  0
 77 78  1  0  0  0
 74117  1  0  0  0
 74 70  1  0  0  0
117118  1  0  0  0
118119  1  0  0  0
 70 71  2  0  0  0
 70 72  1  0  0  0
 72 69  1  0  0  0
 72 73  1  0  0  0
 69120  1  0  0  0
 69 65  1  0  0  0
120121  1  0  0  0
121125  1  0  0  0
121122  2  0  0  0
122123  1  0  0  0
123124  2  0  0  0
124125  1  0  0  0
125126  1  0  0  0
 65 66  2  0  0  0
 65 67  1  0  0  0
 67  1  1  0  0  0
 67 68  1  0  0  0
  1  2  1  0  0  0
  1 10  1  0  0  0
  2  8  2  0  0  0
  2  3  1  0  0  0
  3  4  2  0  0  0
  4  5  1  0  0  0
  5  6  1  0  0  0
  5  7  2  0  0  0
  6  9  1  0  0  0
  7  8  1  0  0  0
 10 11  2  0  0  0
 10 12  1  0  0  0
 12 14  1  0  0  0
 12 13  1  0  0  0
 14 58  1  0  0  0
 14 15  1  0  0  0
 58 59  1  0  0  0
 59 60  1  0  0  0
 60 61  1  0  0  0
 61 62  1  0  0  0
 62 63  1  0  0  0
 62 64  1  0  0  0
 15 16  2  0  0  0
 15 17  1  0  0  0
 17 19  1  0  0  0
 17 18  1  0  0  0
 19 51  1  0  0  0
 19 20  1  0  0  0
 51 52  1  0  0  0
 52 53  1  0  0  0
 53 54  2  0  0  0
 53 55  1  0  0  0
 55 56  1  0  0  0
 55 57  1  0  0  0
 20 21  2  0  0  0
 20 22  1  0  0  0
 22 24  1  0  0  0
 22 23  1  0  0  0
 24 44  1  0  0  0
 24 25  1  0  0  0
 44 45  1  0  0  0
 45 49  1  0  0  0
 45 46  2  0  0  0
 46 47  1  0  0  0
 47 48  2  0  0  0
 48 49  1  0  0  0
 49 50  1  0  0  0
 25 26  2  0  0  0
 25 27  1  0  0  0
 27 29  1  0  0  0
 27 28  1  0  0  0
 29 41  1  0  0  0
 29 30  1  0  0  0
 41 42  1  0  0  0
 42 43  1  0  0  0
 30 31  2  0  0  0
 30 32  1  0  0  0
 32 36  1  0  0  0
 32 33  1  0  0  0
 33 34  1  0  0  0
 34 35  1  0  0  0
 35 36  1  0  0  0
 36 37  1  0  0  0
 37 38  1  0  0  0
 37 39  2  0  0  0
 38 40  1  0  0  0
 99100  1  0  0  0
 99101  1  0  0  0
100102  1  0  0  0
M  END
> <minimizedAffinity>
-4.66072

$$$$



126129  0  0  0  0  0  0  0  0999 V2000
   24.8679  -16.0789    5.4441 C   0  0  0  0  0  0  0  0  0  0  0  0
   24.4146  -16.4477    4.6326 C   0  0  0  0  0  0  0  0  0  0  0  0
   24.2691  -15.8652    3.8330 C   0  0  0  0  0  0  0  0  0  0  0  0
   23.8159  -16.2341    3.0214 C   0  0  0  0  0  0  0  0  0  0  0  0
   23.5081  -17.1855    3.0096 C   0  0  0  0  0  0  0  0  0  0  0  0
   23.0549  -17.5543    2.1982 O   0  0  0  0  0  0  0  0  0  0  0  0
   23.6536  -17.7680    3.8093 C   0  0  0  0  0  0  0  0  0  0  0  0
   24.1068  -17.3992    4.6208 C   0  0  0  0  0  0  0  0  0  0  0  0
   22.9185  -17.0085    1.4489 H   0  0  0  0  0  0  0  0  0  0  0  0
   25.8267  -16.2982    5.6243 C   0  0  0  0  0  0  0  0  0  0  0  0
   26.0822  -17.2190    5.9189 O   0  0  0  0  0  0  0  0  0  0  0  0
   26.5301  -15.5966    5.5100 N   0  0  0  0  0  0  0  0  0  0  0  0
   26.2785  -14.6900    5.2200 H   0  0  0  0  0  0  0  0  0  0  0  0
   27.4890  -15.8159    5.6902 C   0  0  0  0  0  0  0  0  0  0  0  0
   28.0274  -16.3055    5.0044 C   0  0  0  0  0  0  0  0  0  0  0  0
   28.6063  -17.0735    5.2783 O   0  0  0  0  0  0  0  0  0  0  0  0
   27.9868  -16.0273    4.0448 N   0  0  0  0  0  0  0  0  0  0  0  0
   27.4168  -15.2712    3.7752 H   0  0  0  0  0  0  0  0  0  0  0  0
   28.5252  -16.5170    3.3590 C   0  0  0  0  0  0  0  0  0  0  0  0
   29.4186  -16.1650    3.0801 C   0  0  0  0  0  0  0  0  0  0  0  0
   29.5314  -15.1927    2.8754 O   0  0  0  0  0  0  0  0  0  0  0  0
   30.1995  -16.7854    3.0058 N   0  0  0  0  0  0  0  0  0  0  0  0
   30.0885  -17.7427    3.2073 H   0  0  0  0  0  0  0  0  0  0  0  0
   31.0930  -16.4335    2.7269 C   0  0  0  0  0  0  0  0  0  0  0  0
   31.8036  -16.2740    3.4121 C   0  0  0  0  0  0  0  0  0  0  0  0
   32.3028  -15.4076    3.4224 O   0  0  0  0  0  0  0  0  0  0  0  0
   32.0151  -16.9810    4.0870 N   0  0  0  0  0  0  0  0  0  0  0  0
   31.5236  -17.8339    4.0768 H   0  0  0  0  0  0  0  0  0  0  0  0
   32.7257  -16.8215    4.7722 C   0  0  0  0  0  0  0  0  0  0  0  0
   32.4723  -16.5684    5.7058 C   0  0  0  0  0  0  0  0  0  0  0  0
   32.6741  -15.6504    6.0472 O   0  0  0  0  0  0  0  0  0  0  0  0
   32.0171  -17.2333    6.2981 N   0  0  0  0  0  0  0  0  0  0  0  0
   31.7737  -18.1711    6.0506 C   0  0  0  0  0  0  0  0  0  0  0  0
   31.3315  -18.5944    6.8414 C   0  0  0  0  0  0  0  0  0  0  0  0
   31.3017  -17.9183    7.5775 C   0  0  0  0  0  0  0  0  0  0  0  0
   31.7254  -17.0770    7.2417 C   0  0  0  0  0  0  0  0  0  0  0  0
   31.8377  -16.2286    7.7588 C   0  0  0  0  0  0  0  0  0  0  0  0
   32.6481  -16.0941    8.3291 O   0  0  0  0  0  0  0  0  0  0  0  0
   31.1397  -15.5144    7.7056 O   0  0  0  0  0  0  0  0  0  0  0  0
   33.3022  -16.7632    8.3790 H   0  0  0  0  0  0  0  0  0  0  0  0
   33.6899  -16.9152    4.5238 C   0  0  0  0  0  0  0  0  0  0  0  0
   34.0439  -17.7991    4.2183 S   0  0  0  0  0  0  0  0  0  0  0  0
   33.2142  -18.8739    4.1406 H   0  0  0  0  0  0  0  0  0  0  0  0
   31.2758  -16.2410    1.7628 C   0  0  0  0  0  0  0  0  0  0  0  0
   31.6745  -16.9479    1.1786 C   0  0  0  0  0  0  0  0  0  0  0  0
   31.2343  -17.8040    0.9078 C   0  0  0  0  0  0  0  0  0  0  0  0
   31.8712  -18.3080    0.3246 N   0  0  0  0  0  0  0  0  0  0  0  0
   32.7052  -17.7635    0.2348 C   0  0  0  0  0  0  0  0  0  0  0  0
   32.5836  -16.9228    0.7627 N   0  0  0  0  0  0  0  0  0  0  0  0
   33.2431  -16.1979    0.8563 H   0  0  0  0  0  0  0  0  0  0  0  0
   28.1701  -17.3586    2.9521 C   0  0  0  0  0  0  0  0  0  0  0  0
   27.4540  -17.3138    2.2555 C   0  0  0  0  0  0  0  0  0  0  0  0
   26.8777  -18.1117    2.0789 C   0  0  0  0  0  0  0  0  0  0  0  0
   26.8640  -18.8722    2.7282 O   0  0  0  0  0  0  0  0  0  0  0  0
   26.3150  -18.1491    1.2531 N   0  0  0  0  0  0  0  0  0  0  0  0
   26.3285  -17.4004    0.6140 H   0  0  0  0  0  0  0  0  0  0  0  0
   25.7476  -18.9346    1.0792 H   0  0  0  0  0  0  0  0  0  0  0  0
   27.9095  -15.5454    6.5562 C   0  0  0  0  0  0  0  0  0  0  0  0
   27.7852  -14.6158    6.9036 C   0  0  0  0  0  0  0  0  0  0  0  0
   28.2832  -14.3154    7.7171 C   0  0  0  0  0  0  0  0  0  0  0  0
   28.4557  -13.3418    7.8665 C   0  0  0  0  0  0  0  0  0  0  0  0
   29.3884  -13.0179    8.0254 N   0  0  0  0  0  0  0  0  0  0  0  0
   30.1637  -13.6807    8.0351 H   0  0  0  0  0  0  0  0  0  0  0  0
   29.5644  -12.0249    8.1779 H   0  0  0  0  0  0  0  0  0  0  0  0
   24.1242  -15.8244    6.9875 C   0  0  0  0  0  0  0  0  0  0  0  0
   24.3916  -16.7461    7.2684 O   0  0  0  0  0  0  0  0  0  0  0  0
   24.3623  -15.4908    6.0754 N   0  0  0  0  0  0  0  0  0  0  0  0
   24.0989  -14.5834    5.7988 H   0  0  0  0  0  0  0  0  0  0  0  0
   23.6185  -15.2363    7.6188 C   0  0  0  0  0  0  0  0  0  0  0  0
   24.5319  -14.1025    8.5570 C   0  0  0  0  0  0  0  0  0  0  0  0
   24.6207  -13.5109    7.7558 O   0  0  0  0  0  0  0  0  0  0  0  0
   24.0308  -14.9652    8.4885 N   0  0  0  0  0  0  0  0  0  0  0  0
   23.9434  -15.5477    9.2774 H   0  0  0  0  0  0  0  0  0  0  0  0
   24.9442  -13.8314    9.4268 C   0  0  0  0  0  0  0  0  0  0  0  0
   25.5424  -14.5243   10.8972 C   0  0  0  0  0  0  0  0  0  0  0  0
   24.8936  -13.9725   11.4211 O   0  0  0  0  0  0  0  0  0  0  0  0
   25.5677  -14.4537    9.9000 N   0  0  0  0  0  0  0  0  0  0  0  0
   26.2065  -14.9969    9.3842 H   0  0  0  0  0  0  0  0  0  0  0  0
   26.1660  -15.1466   11.3704 C   0  0  0  0  0  0  0  0  0  0  0  0
   25.8258  -15.7304   12.1076 C   0  0  0  0  0  0  0  0  0  0  0  0
   27.8193  -15.4708   11.7719 C   0  0  0  0  0  0  0  0  0  0  0  0
   27.5451  -15.7181   12.7013 O   0  0  0  0  0  0  0  0  0  0  0  0
   27.1297  -15.1851   11.1065 N   0  0  0  0  0  0  0  0  0  0  0  0
   27.3996  -14.9417   10.1915 H   0  0  0  0  0  0  0  0  0  0  0  0
   28.7831  -15.5094   11.5080 C   0  0  0  0  0  0  0  0  0  0  0  0
   29.4719  -17.0006   10.9587 C   0  0  0  0  0  0  0  0  0  0  0  0
   29.0902  -16.8415   10.0482 O   0  0  0  0  0  0  0  0  0  0  0  0
   29.3184  -16.3345   11.6886 N   0  0  0  0  0  0  0  0  0  0  0  0
   29.6941  -16.4911   12.5849 H   0  0  0  0  0  0  0  0  0  0  0  0
   30.0071  -17.8258   11.1393 C   0  0  0  0  0  0  0  0  0  0  0  0
   29.1959  -19.3229   11.4562 C   0  0  0  0  0  0  0  0  0  0  0  0
   29.0460  -19.0412   12.4039 O   0  0  0  0  0  0  0  0  0  0  0  0
   29.6764  -18.7153   10.8239 N   0  0  0  0  0  0  0  0  0  0  0  0
   29.8239  -18.9926    9.8908 H   0  0  0  0  0  0  0  0  0  0  0  0
   29.3757  -21.0431   11.3628 N   0  0  0  0  0  0  0  0  0  0  0  0
   28.8651  -20.2125   11.1407 C   0  0  0  0  0  0  0  0  0  0  0  0
   29.0384  -21.9504   11.0410 H   0  0  0  0  0  0  0  0  0  0  0  0
   30.2338  -20.9831   11.9110 H   0  0  0  0  0  0  0  0  0  0  0  0
   28.0239  -20.2712   10.6033 C   0  0  0  0  0  0  0  0  0  0  0  0
   27.1630  -19.9333   10.9835 O   0  0  0  0  0  0  0  0  0  0  0  0
   28.0436  -20.6679    9.6856 C   0  0  0  0  0  0  0  0  0  0  0  0
   27.1439  -19.5485   11.8738 H   0  0  0  0  0  0  0  0  0  0  0  0
   30.8730  -17.7615   11.6353 C   0  0  0  0  0  0  0  0  0  0  0  0
   31.7390  -17.8028   11.1368 C   0  0  0  0  0  0  0  0  0  0  0  0
   32.5869  -17.5164   11.5830 C   0  0  0  0  0  0  0  0  0  0  0  0
   32.9957  -18.0886   12.2940 O   0  0  0  0  0  0  0  0  0  0  0  0
   33.0261  -16.6579   11.3182 N   0  0  0  0  0  0  0  0  0  0  0  0
   32.6236  -16.0947   10.6182 H   0  0  0  0  0  0  0  0  0  0  0  0
   33.8608  -16.3761   11.7575 H   0  0  0  0  0  0  0  0  0  0  0  0
   29.2117  -14.7227   11.0635 C   0  0  0  0  0  0  0  0  0  0  0  0
   29.9127  -14.1969   11.5453 C   0  0  0  0  0  0  0  0  0  0  0  0
   30.5685  -13.6467   11.0283 C   0  0  0  0  0  0  0  0  0  0  0  0
   31.3107  -14.0927   10.5280 O   0  0  0  0  0  0  0  0  0  0  0  0
   30.4821  -12.6506   11.0115 N   0  0  0  0  0  0  0  0  0  0  0  0
   29.7514  -12.2115   11.5040 H   0  0  0  0  0  0  0  0  0  0  0  0
   31.1278  -12.1090   10.5026 H   0  0  0  0  0  0  0  0  0  0  0  0
   24.7330  -12.9381    9.8233 C   0  0  0  0  0  0  0  0  0  0  0  0
   24.1222  -12.3093    9.3422 O   0  0  0  0  0  0  0  0  0  0  0  0
   23.9173  -11.4426    9.7269 H   0  0  0  0  0  0  0  0  0  0  0  0
   22.7006  -14.9192    7.3802 C   0  0  0  0  0  0  0  0  0  0  0  0
   21.9050  -15.4873    7.5906 C   0  0  0  0  0  0  0  0  0  0  0  0
   21.5437  -15.6779    8.5033 C   0  0  0  0  0  0  0  0  0  0  0  0
   20.7463  -16.2730    8.4020 N   0  0  0  0  0  0  0  0  0  0  0  0
   20.6149  -16.4501    7.4266 C   0  0  0  0  0  0  0  0  0  0  0  0
   21.3310  -15.9645    6.9252 N   0  0  0  0  0  0  0  0  0  0  0  0
   21.4500  -15.9575    5.9479 H   0  0  0  0  0  0  0  0  0  0  0  0
 95 96  1  0  0  0
 95 97  1  0  0  0
 95 98  1  0  0  0
 96 91  1  0  0  0
 96 99  1  0  0  0
 91 92  2  0  0  0
 91 93  1  0  0  0
 93 90  1  0  0  0
 93 94  1  0  0  0
 90103  1  0  0  0
 90 86  1  0  0  0
103104  1  0  0  0
104105  1  0  0  0
105106  2  0  0  0
105107  1  0  0  0
107108  1  0  0  0
107109  1  0  0  0
 86 87  2  0  0  0
 86 88  1  0  0  0
 88 85  1  0  0  0
 88 89  1  0  0  0
 85110  1  0  0  0
 85 81  1  0  0  0
110111  1  0  0  0
111112  1  0  0  0
112113  2  0  0  0
112114  1  0  0  0
114115  1  0  0  0
114116  1  0  0  0
 81 82  2  0  0  0
 81 83  1  0  0  0
 83 79  1  0  0  0
 83 84  1  0  0  0
 79 80  1  0  0  0
 79 75  1  0  0  0
 75 76  2  0  0  0
 75 77  1  0  0  0
 77 74  1  0  0  0
 77 78  1  0  0  0
 74117  1  0  0  0
 74 70  1  0  0  0
117118  1  0  0  0
118119  1  0  0  0
 70 71  2  0  0  0
 70 72  1  0  0  0
 72 69  1  0  0  0
 72 73  1  0  0  0
 69120  1  0  0  0
 69 65  1  0  0  0
120121  1  0  0  0
121125  1  0  0  0
121122  2  0  0  0
122123  1  0  0  0
123124  2  0  0  0
124125  1  0  0  0
125126  1  0  0  0
 65 66  2  0  0  0
 65 67  1  0  0  0
 67  1  1  0  0  0
 67 68  1  0  0  0
  1  2  1  0  0  0
  1 10  1  0  0  0
  2  8  2  0  0  0
  2  3  1  0  0  0
  3  4  2  0  0  0
  4  5  1  0  0  0
  5  6  1  0  0  0
  5  7  2  0  0  0
  6  9  1  0  0  0
  7  8  1  0  0  0
 10 11  2  0  0  0
 10 12  1  0  0  0
 12 14  1  0  0  0
 12 13  1  0  0  0
 14 58  1  0  0  0
 14 15  1  0  0  0
 58 59  1  0  0  0
 59 60  1  0  0  0
 60 61  1  0  0  0
 61 62  1  0  0  0
 62 63  1  0  0  0
 62 64  1  0  0  0
 15 16  2  0  0  0
 15 17  1  0  0  0
 17 19  1  0  0  0
 17 18  1  0  0  0
 19 51  1  0  0  0
 19 20  1  0  0  0
 51 52  1  0  0  0
 52 53  1  0  0  0
 53 54  2  0  0  0
 53 55  1  0  0  0
 55 56  1  0  0  0
 55 57  1  0  0  0
 20 21  2  0  0  0
 20 22  1  0  0  0
 22 24  1  0  0  0
 22 23  1  0  0  0
 24 44  1  0  0  0
 24 25  1  0  0  0
 44 45  1  0  0  0
 45 49  1  0  0  0
 45 46  2  0  0  0
 46 47  1  0  0  0
 47 48  2  0  0  0
 48 49  1  0  0  0
 49 50  1  0  0  0
 25 26  2  0  0  0
 25 27  1  0  0  0
 27 29  1  0  0  0
 27 28  1  0  0  0
 29 41  1  0  0  0
 29 30  1  0  0  0
 41 42  1  0  0  0
 42 43  1  0  0  0
 30 31  2  0  0  0
 30 32  1  0  0  0
 32 36  1  0  0  0
 32 33  1  0  0  0
 33 34  1  0  0  0
 34 35  1  0  0  0
 35 36  1  0  0  0
 36 37  1  0  0  0
 37 38  1  0  0  0
 37 39  2  0  0  0
 38 40  1  0  0  0
 99100  1  0  0  0
 99101  1  0  0  0
100102  1  0  0  0
M  END
> <minimizedAffinity>
-4.64984

$$$$



126129  0  0  0  0  0  0  0  0999 V2000
   14.7826   -9.8562  -12.3838 C   0  0  0  0  0  0  0  0  0  0  0  0
   14.7726   -9.5353  -11.4367 C   0  0  0  0  0  0  0  0  0  0  0  0
   15.6327   -9.3364  -10.9671 C   0  0  0  0  0  0  0  0  0  0  0  0
   15.6227   -9.0155  -10.0200 C   0  0  0  0  0  0  0  0  0  0  0  0
   14.7525   -8.8934   -9.5426 C   0  0  0  0  0  0  0  0  0  0  0  0
   14.7425   -8.5725   -8.5955 O   0  0  0  0  0  0  0  0  0  0  0  0
   13.8923   -9.0923  -10.0122 C   0  0  0  0  0  0  0  0  0  0  0  0
   13.9023   -9.4132  -10.9593 C   0  0  0  0  0  0  0  0  0  0  0  0
   15.5485   -8.3862   -8.1555 H   0  0  0  0  0  0  0  0  0  0  0  0
   14.6370   -9.2094  -13.1324 C   0  0  0  0  0  0  0  0  0  0  0  0
   15.2325   -8.4116  -13.2268 O   0  0  0  0  0  0  0  0  0  0  0  0
   13.8960   -9.3604  -13.7866 N   0  0  0  0  0  0  0  0  0  0  0  0
   13.3097  -10.1458  -13.6937 H   0  0  0  0  0  0  0  0  0  0  0  0
   13.7504   -8.7136  -14.5353 C   0  0  0  0  0  0  0  0  0  0  0  0
   13.1881   -7.8994  -14.3905 C   0  0  0  0  0  0  0  0  0  0  0  0
   12.4210   -7.9291  -13.7497 O   0  0  0  0  0  0  0  0  0  0  0  0
   13.3930   -7.0556  -14.8865 N   0  0  0  0  0  0  0  0  0  0  0  0
   14.1482   -7.0265  -15.5174 H   0  0  0  0  0  0  0  0  0  0  0  0
   12.8307   -6.2415  -14.7417 C   0  0  0  0  0  0  0  0  0  0  0  0
   13.2159   -5.4439  -14.2774 C   0  0  0  0  0  0  0  0  0  0  0  0
   12.9949   -4.5231  -14.5987 O   0  0  0  0  0  0  0  0  0  0  0  0
   13.8222   -5.5672  -13.4917 N   0  0  0  0  0  0  0  0  0  0  0  0
   14.0399   -6.4737  -13.1753 H   0  0  0  0  0  0  0  0  0  0  0  0
   14.2075   -4.7697  -13.0274 C   0  0  0  0  0  0  0  0  0  0  0  0
   15.1503   -4.4916  -13.2107 C   0  0  0  0  0  0  0  0  0  0  0  0
   15.4785   -3.6003  -12.8977 O   0  0  0  0  0  0  0  0  0  0  0  0
   15.7651   -5.1047  -13.7068 N   0  0  0  0  0  0  0  0  0  0  0  0
   15.4420   -5.9821  -14.0149 H   0  0  0  0  0  0  0  0  0  0  0  0
   16.7079   -4.8265  -13.8901 C   0  0  0  0  0  0  0  0  0  0  0  0
   16.9517   -4.4417  -14.7803 C   0  0  0  0  0  0  0  0  0  0  0  0
   17.3031   -3.5075  -14.8419 O   0  0  0  0  0  0  0  0  0  0  0  0
   16.8441   -4.9912  -15.6089 N   0  0  0  0  0  0  0  0  0  0  0  0
   16.5029   -5.9302  -15.6513 C   0  0  0  0  0  0  0  0  0  0  0  0
   16.5067   -6.2173  -16.6092 C   0  0  0  0  0  0  0  0  0  0  0  0
   16.8503   -5.4558  -17.1587 C   0  0  0  0  0  0  0  0  0  0  0  0
   17.0588   -4.6980  -16.5405 C   0  0  0  0  0  0  0  0  0  0  0  0
   17.4189   -3.8040  -16.8071 C   0  0  0  0  0  0  0  0  0  0  0  0
   16.7910   -3.0613  -17.0400 O   0  0  0  0  0  0  0  0  0  0  0  0
   18.4068   -3.6526  -16.8408 O   0  0  0  0  0  0  0  0  0  0  0  0
   15.8654   -3.2031  -17.0085 H   0  0  0  0  0  0  0  0  0  0  0  0
   17.4071   -4.9332  -13.1831 C   0  0  0  0  0  0  0  0  0  0  0  0
   17.8421   -5.8222  -13.0401 S   0  0  0  0  0  0  0  0  0  0  0  0
   17.4828   -6.8863  -13.8070 H   0  0  0  0  0  0  0  0  0  0  0  0
   13.6498   -4.2503  -12.3799 C   0  0  0  0  0  0  0  0  0  0  0  0
   13.4084   -4.6495  -11.4954 C   0  0  0  0  0  0  0  0  0  0  0  0
   13.7535   -5.5124  -11.1261 C   0  0  0  0  0  0  0  0  0  0  0  0
   13.3380   -5.6521  -10.2274 N   0  0  0  0  0  0  0  0  0  0  0  0
   12.7359   -4.8756  -10.0411 C   0  0  0  0  0  0  0  0  0  0  0  0
   12.7795   -4.2560  -10.8249 N   0  0  0  0  0  0  0  0  0  0  0  0
   12.2893   -3.4075  -10.9197 H   0  0  0  0  0  0  0  0  0  0  0  0
   11.8832   -6.2248  -15.0611 C   0  0  0  0  0  0  0  0  0  0  0  0
   11.6863   -6.1366  -16.0375 C   0  0  0  0  0  0  0  0  0  0  0  0
   10.7423   -6.1869  -16.3637 C   0  0  0  0  0  0  0  0  0  0  0  0
   10.0601   -5.5405  -16.0219 O   0  0  0  0  0  0  0  0  0  0  0  0
   10.4806   -6.8835  -17.0317 N   0  0  0  0  0  0  0  0  0  0  0  0
   11.1523   -7.5198  -17.3682 H   0  0  0  0  0  0  0  0  0  0  0  0
    9.5512   -6.9330  -17.3528 H   0  0  0  0  0  0  0  0  0  0  0  0
   14.1671   -8.8810  -15.4288 C   0  0  0  0  0  0  0  0  0  0  0  0
   13.7808   -9.5729  -16.0389 C   0  0  0  0  0  0  0  0  0  0  0  0
   14.1913   -9.7332  -16.9366 C   0  0  0  0  0  0  0  0  0  0  0  0
   13.9279  -10.5366  -17.4705 C   0  0  0  0  0  0  0  0  0  0  0  0
   13.9353  -10.4973  -18.4697 N   0  0  0  0  0  0  0  0  0  0  0  0
   14.2116   -9.6376  -18.9443 H   0  0  0  0  0  0  0  0  0  0  0  0
   13.6666  -11.3167  -19.0144 H   0  0  0  0  0  0  0  0  0  0  0  0
   15.8485  -11.1394  -12.8498 C   0  0  0  0  0  0  0  0  0  0  0  0
   16.6034  -10.4871  -12.9191 O   0  0  0  0  0  0  0  0  0  0  0  0
   14.9381  -10.8239  -12.5822 N   0  0  0  0  0  0  0  0  0  0  0  0
   14.1949  -11.4660  -12.5140 H   0  0  0  0  0  0  0  0  0  0  0  0
   16.0040  -12.1071  -13.0482 C   0  0  0  0  0  0  0  0  0  0  0  0
   16.2788  -12.4944  -14.7139 C   0  0  0  0  0  0  0  0  0  0  0  0
   15.3084  -12.3504  -14.9075 O   0  0  0  0  0  0  0  0  0  0  0  0
   16.6266  -12.3728  -13.7843 N   0  0  0  0  0  0  0  0  0  0  0  0
   17.5821  -12.5145  -13.5936 H   0  0  0  0  0  0  0  0  0  0  0  0
   16.9014  -12.7601  -15.4499 C   0  0  0  0  0  0  0  0  0  0  0  0
   18.4979  -12.1124  -15.6280 C   0  0  0  0  0  0  0  0  0  0  0  0
   18.1283  -11.3460  -16.1533 O   0  0  0  0  0  0  0  0  0  0  0  0
   17.8845  -12.8195  -15.2763 N   0  0  0  0  0  0  0  0  0  0  0  0
   18.2483  -13.5740  -14.7591 H   0  0  0  0  0  0  0  0  0  0  0  0
   19.4809  -12.1717  -15.4543 C   0  0  0  0  0  0  0  0  0  0  0  0
   19.9580  -13.0424  -15.5733 C   0  0  0  0  0  0  0  0  0  0  0  0
   20.1270  -11.1828  -14.1876 C   0  0  0  0  0  0  0  0  0  0  0  0
   19.7613  -11.8168  -13.5062 O   0  0  0  0  0  0  0  0  0  0  0  0
   19.9868  -11.3602  -15.1617 N   0  0  0  0  0  0  0  0  0  0  0  0
   20.3468  -10.7361  -15.8325 H   0  0  0  0  0  0  0  0  0  0  0  0
   20.6329  -10.3714  -13.8949 C   0  0  0  0  0  0  0  0  0  0  0  0
   20.3863   -8.8786  -14.7380 C   0  0  0  0  0  0  0  0  0  0  0  0
   19.5385   -8.7311  -14.2287 O   0  0  0  0  0  0  0  0  0  0  0  0
   20.9336   -9.6987  -14.5710 N   0  0  0  0  0  0  0  0  0  0  0  0
   21.7683   -9.8440  -15.0723 H   0  0  0  0  0  0  0  0  0  0  0  0
   20.6870   -8.2059  -15.4141 C   0  0  0  0  0  0  0  0  0  0  0  0
   21.7967   -6.9526  -14.9696 C   0  0  0  0  0  0  0  0  0  0  0  0
   21.0413   -6.4182  -14.5905 O   0  0  0  0  0  0  0  0  0  0  0  0
   21.6195   -7.8465  -15.3814 N   0  0  0  0  0  0  0  0  0  0  0  0
   22.3633   -8.3727  -15.7545 H   0  0  0  0  0  0  0  0  0  0  0  0
   23.2718   -6.5333  -15.7748 N   0  0  0  0  0  0  0  0  0  0  0  0
   22.7294   -6.5932  -14.9368 C   0  0  0  0  0  0  0  0  0  0  0  0
   24.2230   -6.1667  -15.7415 H   0  0  0  0  0  0  0  0  0  0  0  0
   22.8737   -6.8388  -16.6629 H   0  0  0  0  0  0  0  0  0  0  0  0
   23.1195   -6.2937  -14.0662 C   0  0  0  0  0  0  0  0  0  0  0  0
   23.3178   -6.9633  -13.3504 O   0  0  0  0  0  0  0  0  0  0  0  0
   23.3114   -5.3246  -13.9113 C   0  0  0  0  0  0  0  0  0  0  0  0
   23.1317   -7.9033  -13.5007 H   0  0  0  0  0  0  0  0  0  0  0  0
   20.0550   -7.8928  -16.1230 C   0  0  0  0  0  0  0  0  0  0  0  0
   20.1105   -8.2736  -17.0460 C   0  0  0  0  0  0  0  0  0  0  0  0
   19.6199   -7.8342  -17.7985 C   0  0  0  0  0  0  0  0  0  0  0  0
   19.8581   -6.9031  -18.0747 O   0  0  0  0  0  0  0  0  0  0  0  0
   18.8910   -8.3260  -18.2749 N   0  0  0  0  0  0  0  0  0  0  0  0
   18.6566   -9.2427  -18.0030 H   0  0  0  0  0  0  0  0  0  0  0  0
   18.4080   -7.8935  -19.0157 H   0  0  0  0  0  0  0  0  0  0  0  0
   20.8382  -10.2326  -12.9261 C   0  0  0  0  0  0  0  0  0  0  0  0
   21.7759  -10.3345  -12.5941 C   0  0  0  0  0  0  0  0  0  0  0  0
   22.0419   -9.9350  -11.7168 C   0  0  0  0  0  0  0  0  0  0  0  0
   22.4439   -9.0200  -11.6854 O   0  0  0  0  0  0  0  0  0  0  0  0
   21.9058  -10.4507  -10.8708 N   0  0  0  0  0  0  0  0  0  0  0  0
   21.5100  -11.3516  -10.9017 H   0  0  0  0  0  0  0  0  0  0  0  0
   22.1677  -10.0574  -10.0071 H   0  0  0  0  0  0  0  0  0  0  0  0
   16.5410  -12.9665  -16.3595 C   0  0  0  0  0  0  0  0  0  0  0  0
   16.5507  -13.9069  -16.6997 O   0  0  0  0  0  0  0  0  0  0  0  0
   16.2011  -14.1071  -17.5821 H   0  0  0  0  0  0  0  0  0  0  0  0
   15.5369  -12.8091  -12.5106 C   0  0  0  0  0  0  0  0  0  0  0  0
   16.0578  -13.3866  -11.8820 C   0  0  0  0  0  0  0  0  0  0  0  0
   16.2470  -14.3614  -11.9994 C   0  0  0  0  0  0  0  0  0  0  0  0
   16.7872  -14.6680  -11.2156 N   0  0  0  0  0  0  0  0  0  0  0  0
   16.9318  -13.8825  -10.6138 C   0  0  0  0  0  0  0  0  0  0  0  0
   16.4810  -13.0906  -11.0257 N   0  0  0  0  0  0  0  0  0  0  0  0
   16.4579  -12.1794  -10.6535 H   0  0  0  0  0  0  0  0  0  0  0  0
 95 96  1  0  0  0
 95 97  1  0  0  0
 95 98  1  0  0  0
 96 91  1  0  0  0
 96 99  1  0  0  0
 91 92  2  0  0  0
 91 93  1  0  0  0
 93 90  1  0  0  0
 93 94  1  0  0  0
 90103  1  0  0  0
 90 86  1  0  0  0
103104  1  0  0  0
104105  1  0  0  0
105106  2  0  0  0
105107  1  0  0  0
107108  1  0  0  0
107109  1  0  0  0
 86 87  2  0  0  0
 86 88  1  0  0  0
 88 85  1  0  0  0
 88 89  1  0  0  0
 85110  1  0  0  0
 85 81  1  0  0  0
110111  1  0  0  0
111112  1  0  0  0
112113  2  0  0  0
112114  1  0  0  0
114115  1  0  0  0
114116  1  0  0  0
 81 82  2  0  0  0
 81 83  1  0  0  0
 83 79  1  0  0  0
 83 84  1  0  0  0
 79 80  1  0  0  0
 79 75  1  0  0  0
 75 76  2  0  0  0
 75 77  1  0  0  0
 77 74  1  0  0  0
 77 78  1  0  0  0
 74117  1  0  0  0
 74 70  1  0  0  0
117118  1  0  0  0
118119  1  0  0  0
 70 71  2  0  0  0
 70 72  1  0  0  0
 72 69  1  0  0  0
 72 73  1  0  0  0
 69120  1  0  0  0
 69 65  1  0  0  0
120121  1  0  0  0
121125  1  0  0  0
121122  2  0  0  0
122123  1  0  0  0
123124  2  0  0  0
124125  1  0  0  0
125126  1  0  0  0
 65 66  2  0  0  0
 65 67  1  0  0  0
 67  1  1  0  0  0
 67 68  1  0  0  0
  1  2  1  0  0  0
  1 10  1  0  0  0
  2  8  2  0  0  0
  2  3  1  0  0  0
  3  4  2  0  0  0
  4  5  1  0  0  0
  5  6  1  0  0  0
  5  7  2  0  0  0
  6  9  1  0  0  0
  7  8  1  0  0  0
 10 11  2  0  0  0
 10 12  1  0  0  0
 12 14  1  0  0  0
 12 13  1  0  0  0
 14 58  1  0  0  0
 14 15  1  0  0  0
 58 59  1  0  0  0
 59 60  1  0  0  0
 60 61  1  0  0  0
 61 62  1  0  0  0
 62 63  1  0  0  0
 62 64  1  0  0  0
 15 16  2  0  0  0
 15 17  1  0  0  0
 17 19  1  0  0  0
 17 18  1  0  0  0
 19 51  1  0  0  0
 19 20  1  0  0  0
 51 52  1  0  0  0
 52 53  1  0  0  0
 53 54  2  0  0  0
 53 55  1  0  0  0
 55 56  1  0  0  0
 55 57  1  0  0  0
 20 21  2  0  0  0
 20 22  1  0  0  0
 22 24  1  0  0  0
 22 23  1  0  0  0
 24 44  1  0  0  0
 24 25  1  0  0  0
 44 45  1  0  0  0
 45 49  1  0  0  0
 45 46  2  0  0  0
 46 47  1  0  0  0
 47 48  2  0  0  0
 48 49  1  0  0  0
 49 50  1  0  0  0
 25 26  2  0  0  0
 25 27  1  0  0  0
 27 29  1  0  0  0
 27 28  1  0  0  0
 29 41  1  0  0  0
 29 30  1  0  0  0
 41 42  1  0  0  0
 42 43  1  0  0  0
 30 31  2  0  0  0
 30 32  1  0  0  0
 32 36  1  0  0  0
 32 33  1  0  0  0
 33 34  1  0  0  0
 34 35  1  0  0  0
 35 36  1  0  0  0
 36 37  1  0  0  0
 37 38  1  0  0  0
 37 39  2  0  0  0
 38 40  1  0  0  0
 99100  1  0  0  0
 99101  1  0  0  0
100102  1  0  0  0
M  END
> <minimizedAffinity>
-4.62028

$$$$



126129  0  0  0  0  0  0  0  0999 V2000
   41.0280    5.0301   -2.7152 C   0  0  0  0  0  0  0  0  0  0  0  0
   40.0347    5.1312   -2.7712 C   0  0  0  0  0  0  0  0  0  0  0  0
   39.5016    4.5174   -3.3534 C   0  0  0  0  0  0  0  0  0  0  0  0
   38.5083    4.6185   -3.4094 C   0  0  0  0  0  0  0  0  0  0  0  0
   38.0481    5.3335   -2.8832 C   0  0  0  0  0  0  0  0  0  0  0  0
   37.0548    5.4347   -2.9392 O   0  0  0  0  0  0  0  0  0  0  0  0
   38.5811    5.9474   -2.3010 C   0  0  0  0  0  0  0  0  0  0  0  0
   39.5744    5.8463   -2.2449 C   0  0  0  0  0  0  0  0  0  0  0  0
   36.5553    4.8595   -3.4848 H   0  0  0  0  0  0  0  0  0  0  0  0
   41.5964    5.2269   -3.5140 C   0  0  0  0  0  0  0  0  0  0  0  0
   42.2694    5.9657   -3.4791 O   0  0  0  0  0  0  0  0  0  0  0  0
   41.4918    4.6847   -4.3477 N   0  0  0  0  0  0  0  0  0  0  0  0
   40.8293    3.9574   -4.3821 H   0  0  0  0  0  0  0  0  0  0  0  0
   42.0603    4.8815   -5.1467 C   0  0  0  0  0  0  0  0  0  0  0  0
   42.7710    4.2358   -5.4259 C   0  0  0  0  0  0  0  0  0  0  0  0
   43.0445    4.1777   -6.3860 O   0  0  0  0  0  0  0  0  0  0  0  0
   43.2081    3.6481   -4.7450 N   0  0  0  0  0  0  0  0  0  0  0  0
   42.9388    3.7053   -3.7998 H   0  0  0  0  0  0  0  0  0  0  0  0
   43.9188    3.0024   -5.0243 C   0  0  0  0  0  0  0  0  0  0  0  0
   43.7619    2.0185   -4.9388 C   0  0  0  0  0  0  0  0  0  0  0  0
   43.5835    1.6168   -4.0406 O   0  0  0  0  0  0  0  0  0  0  0  0
   43.7834    1.4363   -5.7516 N   0  0  0  0  0  0  0  0  0  0  0  0
   43.9590    1.8318   -6.6359 H   0  0  0  0  0  0  0  0  0  0  0  0
   43.6265    0.4524   -5.6662 C   0  0  0  0  0  0  0  0  0  0  0  0
   42.7208    0.0724   -5.8539 C   0  0  0  0  0  0  0  0  0  0  0  0
   42.3829   -0.7021   -5.3191 O   0  0  0  0  0  0  0  0  0  0  0  0
   42.1530    0.4668   -6.5764 N   0  0  0  0  0  0  0  0  0  0  0  0
   42.4857    1.2292   -7.1028 H   0  0  0  0  0  0  0  0  0  0  0  0
   41.2473    0.0868   -6.7641 C   0  0  0  0  0  0  0  0  0  0  0  0
   40.4426    0.4613   -6.3034 C   0  0  0  0  0  0  0  0  0  0  0  0
   39.9891   -0.0638   -5.5833 O   0  0  0  0  0  0  0  0  0  0  0  0
   40.0914    1.3610   -6.5630 N   0  0  0  0  0  0  0  0  0  0  0  0
   40.4727    1.9600   -7.2671 C   0  0  0  0  0  0  0  0  0  0  0  0
   39.9142    2.7887   -7.3032 C   0  0  0  0  0  0  0  0  0  0  0  0
   39.1878    2.7018   -6.6214 C   0  0  0  0  0  0  0  0  0  0  0  0
   39.2973    1.8194   -6.1640 C   0  0  0  0  0  0  0  0  0  0  0  0
   38.7150    1.4588   -5.4354 C   0  0  0  0  0  0  0  0  0  0  0  0
   37.8156    1.0807   -5.6551 O   0  0  0  0  0  0  0  0  0  0  0  0
   39.0320    1.4762   -4.4871 O   0  0  0  0  0  0  0  0  0  0  0  0
   37.5186    1.0644   -6.5436 H   0  0  0  0  0  0  0  0  0  0  0  0
   41.1462   -0.6679   -7.4125 C   0  0  0  0  0  0  0  0  0  0  0  0
   41.4878   -0.5729   -8.3475 S   0  0  0  0  0  0  0  0  0  0  0  0
   42.0899    0.5826   -8.7374 H   0  0  0  0  0  0  0  0  0  0  0  0
   44.3753   -0.1515   -5.3930 C   0  0  0  0  0  0  0  0  0  0  0  0
   45.0612   -0.4325   -6.0642 C   0  0  0  0  0  0  0  0  0  0  0  0
   45.9707   -0.0325   -6.1781 C   0  0  0  0  0  0  0  0  0  0  0  0
   46.4297   -0.5157   -6.9236 N   0  0  0  0  0  0  0  0  0  0  0  0
   45.8039   -1.2144   -7.2706 C   0  0  0  0  0  0  0  0  0  0  0  0
   44.9582   -1.1629   -6.7394 N   0  0  0  0  0  0  0  0  0  0  0  0
   44.1636   -1.7316   -6.8600 H   0  0  0  0  0  0  0  0  0  0  0  0
   44.7863    3.3406   -5.3889 C   0  0  0  0  0  0  0  0  0  0  0  0
   45.5478    3.5332   -4.7700 C   0  0  0  0  0  0  0  0  0  0  0  0
   46.4779    3.6074   -5.1296 C   0  0  0  0  0  0  0  0  0  0  0  0
   46.6638    4.1937   -5.9182 O   0  0  0  0  0  0  0  0  0  0  0  0
   47.2222    3.0955   -4.7006 N   0  0  0  0  0  0  0  0  0  0  0  0
   47.0391    2.5184   -3.9242 H   0  0  0  0  0  0  0  0  0  0  0  0
   48.1379    3.1686   -5.0546 H   0  0  0  0  0  0  0  0  0  0  0  0
   41.9180    5.7239   -5.6663 C   0  0  0  0  0  0  0  0  0  0  0  0
   41.1643    5.7865   -6.3207 C   0  0  0  0  0  0  0  0  0  0  0  0
   40.8447    6.6818   -6.6310 C   0  0  0  0  0  0  0  0  0  0  0  0
   40.1483    6.7438   -7.3460 C   0  0  0  0  0  0  0  0  0  0  0  0
   39.1932    6.5382   -7.1329 N   0  0  0  0  0  0  0  0  0  0  0  0
   38.9293    6.2651   -6.1861 H   0  0  0  0  0  0  0  0  0  0  0  0
   38.4829    6.6014   -7.8621 H   0  0  0  0  0  0  0  0  0  0  0  0
   41.6704    3.7664   -1.7201 C   0  0  0  0  0  0  0  0  0  0  0  0
   41.4632    3.0982   -2.4348 O   0  0  0  0  0  0  0  0  0  0  0  0
   41.4528    4.7323   -1.8603 N   0  0  0  0  0  0  0  0  0  0  0  0
   41.6568    5.3900   -1.1567 H   0  0  0  0  0  0  0  0  0  0  0  0
   42.0953    3.4685   -0.8652 C   0  0  0  0  0  0  0  0  0  0  0  0
   41.0180    3.2117    0.4664 C   0  0  0  0  0  0  0  0  0  0  0  0
   40.6994    2.3627    0.0450 O   0  0  0  0  0  0  0  0  0  0  0  0
   41.7159    3.7646    0.0113 N   0  0  0  0  0  0  0  0  0  0  0  0
   42.0296    4.6005    0.4263 H   0  0  0  0  0  0  0  0  0  0  0  0
   40.6386    3.5077    1.3430 C   0  0  0  0  0  0  0  0  0  0  0  0
   39.2635    4.5543    1.4598 C   0  0  0  0  0  0  0  0  0  0  0  0
   39.8624    5.3506    1.3745 O   0  0  0  0  0  0  0  0  0  0  0  0
   39.6516    3.6329    1.4440 N   0  0  0  0  0  0  0  0  0  0  0  0
   39.0621    2.8489    1.5279 H   0  0  0  0  0  0  0  0  0  0  0  0
   38.2765    4.6795    1.5608 C   0  0  0  0  0  0  0  0  0  0  0  0
   37.9014    5.0205    2.4227 C   0  0  0  0  0  0  0  0  0  0  0  0
   36.9774    3.7443    0.8994 C   0  0  0  0  0  0  0  0  0  0  0  0
   36.9018    3.2407    1.7600 O   0  0  0  0  0  0  0  0  0  0  0  0
   37.6647    4.4637    0.7998 N   0  0  0  0  0  0  0  0  0  0  0  0
   37.7391    4.9596   -0.0475 H   0  0  0  0  0  0  0  0  0  0  0  0
   36.3655    3.5285    0.1384 C   0  0  0  0  0  0  0  0  0  0  0  0
   34.7177    4.0603    0.0941 C   0  0  0  0  0  0  0  0  0  0  0  0
   34.4460    3.2636    0.6340 O   0  0  0  0  0  0  0  0  0  0  0  0
   35.6774    4.1927   -0.1537 N   0  0  0  0  0  0  0  0  0  0  0  0
   35.9448    4.9770   -0.6852 H   0  0  0  0  0  0  0  0  0  0  0  0
   34.0296    4.7245   -0.1981 C   0  0  0  0  0  0  0  0  0  0  0  0
   33.5051    5.9555    0.9017 C   0  0  0  0  0  0  0  0  0  0  0  0
   34.3213    6.4928    0.6896 O   0  0  0  0  0  0  0  0  0  0  0  0
   33.3592    5.0713    0.4579 N   0  0  0  0  0  0  0  0  0  0  0  0
   32.5556    4.5423    0.6666 H   0  0  0  0  0  0  0  0  0  0  0  0
   32.6838    5.8200    2.4207 N   0  0  0  0  0  0  0  0  0  0  0  0
   32.8346    6.3023    1.5577 C   0  0  0  0  0  0  0  0  0  0  0  0
   32.0000    6.1737    3.0898 H   0  0  0  0  0  0  0  0  0  0  0  0
   33.2138    4.9744    2.6318 H   0  0  0  0  0  0  0  0  0  0  0  0
   32.3151    7.1313    1.3507 C   0  0  0  0  0  0  0  0  0  0  0  0
   31.7107    7.1568    0.5545 O   0  0  0  0  0  0  0  0  0  0  0  0
   32.4000    7.9347    1.9400 C   0  0  0  0  0  0  0  0  0  0  0  0
   31.6284    6.3774   -0.0172 H   0  0  0  0  0  0  0  0  0  0  0  0
   34.0119    5.0419   -1.1462 C   0  0  0  0  0  0  0  0  0  0  0  0
   33.2695    4.7602   -1.7540 C   0  0  0  0  0  0  0  0  0  0  0  0
   33.2165    5.1280   -2.6824 C   0  0  0  0  0  0  0  0  0  0  0  0
   34.0252    5.1196   -3.2705 O   0  0  0  0  0  0  0  0  0  0  0  0
   32.3546    5.5042   -3.0227 N   0  0  0  0  0  0  0  0  0  0  0  0
   31.5585    5.5124   -2.4436 H   0  0  0  0  0  0  0  0  0  0  0  0
   32.3024    5.8663   -3.9366 H   0  0  0  0  0  0  0  0  0  0  0  0
   36.4417    2.6485   -0.3303 C   0  0  0  0  0  0  0  0  0  0  0  0
   37.0994    2.5339   -1.0748 C   0  0  0  0  0  0  0  0  0  0  0  0
   37.3304    1.6174   -1.4012 C   0  0  0  0  0  0  0  0  0  0  0  0
   36.6045    0.9561   -1.5902 O   0  0  0  0  0  0  0  0  0  0  0  0
   38.2875    1.3620   -1.5385 N   0  0  0  0  0  0  0  0  0  0  0  0
   39.0022    2.0130   -1.3524 H   0  0  0  0  0  0  0  0  0  0  0  0
   38.5150    0.4596   -1.8598 H   0  0  0  0  0  0  0  0  0  0  0  0
   41.2463    3.6786    2.1186 C   0  0  0  0  0  0  0  0  0  0  0  0
   41.5587    2.9170    2.6863 O   0  0  0  0  0  0  0  0  0  0  0  0
   42.1481    3.0828    3.4387 H   0  0  0  0  0  0  0  0  0  0  0  0
   42.8995    2.8745   -0.8870 C   0  0  0  0  0  0  0  0  0  0  0  0
   43.8148    3.2690   -0.8060 C   0  0  0  0  0  0  0  0  0  0  0  0
   44.2165    3.6567    0.0237 C   0  0  0  0  0  0  0  0  0  0  0  0
   45.1392    3.9724   -0.1980 N   0  0  0  0  0  0  0  0  0  0  0  0
   45.3076    3.7799   -1.1648 C   0  0  0  0  0  0  0  0  0  0  0  0
   44.4891    3.3452   -1.5405 N   0  0  0  0  0  0  0  0  0  0  0  0
   44.3685    3.0449   -2.4703 H   0  0  0  0  0  0  0  0  0  0  0  0
 95 96  1  0  0  0
 95 97  1  0  0  0
 95 98  1  0  0  0
 96 91  1  0  0  0
 96 99  1  0  0  0
 91 92  2  0  0  0
 91 93  1  0  0  0
 93 90  1  0  0  0
 93 94  1  0  0  0
 90103  1  0  0  0
 90 86  1  0  0  0
103104  1  0  0  0
104105  1  0  0  0
105106  2  0  0  0
105107  1  0  0  0
107108  1  0  0  0
107109  1  0  0  0
 86 87  2  0  0  0
 86 88  1  0  0  0
 88 85  1  0  0  0
 88 89  1  0  0  0
 85110  1  0  0  0
 85 81  1  0  0  0
110111  1  0  0  0
111112  1  0  0  0
112113  2  0  0  0
112114  1  0  0  0
114115  1  0  0  0
114116  1  0  0  0
 81 82  2  0  0  0
 81 83  1  0  0  0
 83 79  1  0  0  0
 83 84  1  0  0  0
 79 80  1  0  0  0
 79 75  1  0  0  0
 75 76  2  0  0  0
 75 77  1  0  0  0
 77 74  1  0  0  0
 77 78  1  0  0  0
 74117  1  0  0  0
 74 70  1  0  0  0
117118  1  0  0  0
118119  1  0  0  0
 70 71  2  0  0  0
 70 72  1  0  0  0
 72 69  1  0  0  0
 72 73  1  0  0  0
 69120  1  0  0  0
 69 65  1  0  0  0
120121  1  0  0  0
121125  1  0  0  0
121122  2  0  0  0
122123  1  0  0  0
123124  2  0  0  0
124125  1  0  0  0
125126  1  0  0  0
 65 66  2  0  0  0
 65 67  1  0  0  0
 67  1  1  0  0  0
 67 68  1  0  0  0
  1  2  1  0  0  0
  1 10  1  0  0  0
  2  8  2  0  0  0
  2  3  1  0  0  0
  3  4  2  0  0  0
  4  5  1  0  0  0
  5  6  1  0  0  0
  5  7  2  0  0  0
  6  9  1  0  0  0
  7  8  1  0  0  0
 10 11  2  0  0  0
 10 12  1  0  0  0
 12 14  1  0  0  0
 12 13  1  0  0  0
 14 58  1  0  0  0
 14 15  1  0  0  0
 58 59  1  0  0  0
 59 60  1  0  0  0
 60 61  1  0  0  0
 61 62  1  0  0  0
 62 63  1  0  0  0
 62 64  1  0  0  0
 15 16  2  0  0  0
 15 17  1  0  0  0
 17 19  1  0  0  0
 17 18  1  0  0  0
 19 51  1  0  0  0
 19 20  1  0  0  0
 51 52  1  0  0  0
 52 53  1  0  0  0
 53 54  2  0  0  0
 53 55  1  0  0  0
 55 56  1  0  0  0
 55 57  1  0  0  0
 20 21  2  0  0  0
 20 22  1  0  0  0
 22 24  1  0  0  0
 22 23  1  0  0  0
 24 44  1  0  0  0
 24 25  1  0  0  0
 44 45  1  0  0  0
 45 49  1  0  0  0
 45 46  2  0  0  0
 46 47  1  0  0  0
 47 48  2  0  0  0
 48 49  1  0  0  0
 49 50  1  0  0  0
 25 26  2  0  0  0
 25 27  1  0  0  0
 27 29  1  0  0  0
 27 28  1  0  0  0
 29 41  1  0  0  0
 29 30  1  0  0  0
 41 42  1  0  0  0
 42 43  1  0  0  0
 30 31  2  0  0  0
 30 32  1  0  0  0
 32 36  1  0  0  0
 32 33  1  0  0  0
 33 34  1  0  0  0
 34 35  1  0  0  0
 35 36  1  0  0  0
 36 37  1  0  0  0
 37 38  1  0  0  0
 37 39  2  0  0  0
 38 40  1  0  0  0
 99100  1  0  0  0
 99101  1  0  0  0
100102  1  0  0  0
M  END
> <minimizedAffinity>
-4.61558

$$$$



126129  0  0  0  0  0  0  0  0999 V2000
   13.2612   -5.8661  -12.9013 C   0  0  0  0  0  0  0  0  0  0  0  0
   12.9698   -5.5732  -11.9907 C   0  0  0  0  0  0  0  0  0  0  0  0
   13.1616   -4.6423  -11.6797 C   0  0  0  0  0  0  0  0  0  0  0  0
   12.8702   -4.3494  -10.7690 C   0  0  0  0  0  0  0  0  0  0  0  0
   12.3869   -4.9872  -10.1694 C   0  0  0  0  0  0  0  0  0  0  0  0
   12.0955   -4.6943   -9.2588 O   0  0  0  0  0  0  0  0  0  0  0  0
   12.1951   -5.9181  -10.4804 C   0  0  0  0  0  0  0  0  0  0  0  0
   12.4865   -6.2111  -11.3910 C   0  0  0  0  0  0  0  0  0  0  0  0
   12.2752   -3.8220   -8.9674 H   0  0  0  0  0  0  0  0  0  0  0  0
   14.1477   -6.3125  -13.0230 C   0  0  0  0  0  0  0  0  0  0  0  0
   14.6057   -6.7362  -12.2415 O   0  0  0  0  0  0  0  0  0  0  0  0
   14.5762   -6.3353  -13.9262 N   0  0  0  0  0  0  0  0  0  0  0  0
   14.1254   -5.9181  -14.6956 H   0  0  0  0  0  0  0  0  0  0  0  0
   15.4628   -6.7817  -14.0480 C   0  0  0  0  0  0  0  0  0  0  0  0
   15.5054   -7.7469  -14.3058 C   0  0  0  0  0  0  0  0  0  0  0  0
   14.8494   -8.1184  -14.9628 O   0  0  0  0  0  0  0  0  0  0  0  0
   16.2040   -8.3407  -13.9065 N   0  0  0  0  0  0  0  0  0  0  0  0
   16.8498   -7.9750  -13.2597 H   0  0  0  0  0  0  0  0  0  0  0  0
   16.2465   -9.3060  -14.1643 C   0  0  0  0  0  0  0  0  0  0  0  0
   15.9649  -10.0104  -13.5128 C   0  0  0  0  0  0  0  0  0  0  0  0
   15.3832  -10.7660  -13.8138 O   0  0  0  0  0  0  0  0  0  0  0  0
   16.2650   -9.9592  -12.5602 N   0  0  0  0  0  0  0  0  0  0  0  0
   16.8378   -9.2152  -12.2639 H   0  0  0  0  0  0  0  0  0  0  0  0
   15.9834  -10.6635  -11.9087 C   0  0  0  0  0  0  0  0  0  0  0  0
   16.5975  -11.4241  -11.6982 C   0  0  0  0  0  0  0  0  0  0  0  0
   16.2712  -12.1926  -11.1477 O   0  0  0  0  0  0  0  0  0  0  0  0
   17.5379  -11.4163  -12.0382 N   0  0  0  0  0  0  0  0  0  0  0  0
   17.8591  -10.6598  -12.5801 H   0  0  0  0  0  0  0  0  0  0  0  0
   18.1520  -12.1769  -11.8277 C   0  0  0  0  0  0  0  0  0  0  0  0
   18.8716  -12.0637  -11.1426 C   0  0  0  0  0  0  0  0  0  0  0  0
   18.8706  -12.6296  -10.3181 O   0  0  0  0  0  0  0  0  0  0  0  0
   19.5924  -11.3846  -11.2820 N   0  0  0  0  0  0  0  0  0  0  0  0
   19.6803  -10.7740  -12.0691 C   0  0  0  0  0  0  0  0  0  0  0  0
   20.4939  -10.2089  -11.9323 C   0  0  0  0  0  0  0  0  0  0  0  0
   20.9087  -10.4703  -11.0607 C   0  0  0  0  0  0  0  0  0  0  0  0
   20.3516  -11.1968  -10.6589 C   0  0  0  0  0  0  0  0  0  0  0  0
   20.5234  -11.6552   -9.7869 C   0  0  0  0  0  0  0  0  0  0  0  0
   21.1021  -12.4702   -9.7560 O   0  0  0  0  0  0  0  0  0  0  0  0
   20.1165  -11.2987   -8.9458 O   0  0  0  0  0  0  0  0  0  0  0  0
   21.4833  -12.8043  -10.5440 H   0  0  0  0  0  0  0  0  0  0  0  0
   18.0466  -13.0509  -12.3023 C   0  0  0  0  0  0  0  0  0  0  0  0
   18.3195  -13.1356  -13.2606 S   0  0  0  0  0  0  0  0  0  0  0  0
   18.8341  -12.0623  -13.9185 H   0  0  0  0  0  0  0  0  0  0  0  0
   15.0877  -10.6073  -11.4676 C   0  0  0  0  0  0  0  0  0  0  0  0
   14.9351   -9.9525  -10.7274 C   0  0  0  0  0  0  0  0  0  0  0  0
   14.1163   -9.3934  -10.5967 C   0  0  0  0  0  0  0  0  0  0  0  0
   14.2496   -8.8372   -9.7764 N   0  0  0  0  0  0  0  0  0  0  0  0
   15.1508   -9.0526   -9.4001 C   0  0  0  0  0  0  0  0  0  0  0  0
   15.5744   -9.7419   -9.9879 N   0  0  0  0  0  0  0  0  0  0  0  0
   16.4646  -10.1427   -9.8607 H   0  0  0  0  0  0  0  0  0  0  0  0
   16.5707   -9.5669  -15.0736 C   0  0  0  0  0  0  0  0  0  0  0  0
   17.5411   -9.7563  -15.2232 C   0  0  0  0  0  0  0  0  0  0  0  0
   17.9113   -9.7663  -16.1521 C   0  0  0  0  0  0  0  0  0  0  0  0
   18.3308   -8.9417  -16.5320 O   0  0  0  0  0  0  0  0  0  0  0  0
   17.8620  -10.6006  -16.7011 N   0  0  0  0  0  0  0  0  0  0  0  0
   17.4490  -11.4123  -16.3270 H   0  0  0  0  0  0  0  0  0  0  0  0
   18.2264  -10.6104  -17.6156 H   0  0  0  0  0  0  0  0  0  0  0  0
   16.3068   -6.2628  -13.9120 C   0  0  0  0  0  0  0  0  0  0  0  0
   16.5624   -5.5451  -14.5598 C   0  0  0  0  0  0  0  0  0  0  0  0
   17.2038   -4.8288  -14.2850 C   0  0  0  0  0  0  0  0  0  0  0  0
   17.3630   -4.0437  -14.8835 C   0  0  0  0  0  0  0  0  0  0  0  0
   18.0109   -3.3318  -14.6127 N   0  0  0  0  0  0  0  0  0  0  0  0
   18.5094   -3.4065  -13.7259 H   0  0  0  0  0  0  0  0  0  0  0  0
   18.1732   -2.5309  -15.2231 H   0  0  0  0  0  0  0  0  0  0  0  0
   12.0164   -6.4190  -13.9713 C   0  0  0  0  0  0  0  0  0  0  0  0
   11.9618   -7.2788  -13.4634 O   0  0  0  0  0  0  0  0  0  0  0  0
   12.6662   -5.7127  -13.6902 N   0  0  0  0  0  0  0  0  0  0  0  0
   12.7200   -4.8663  -14.1901 H   0  0  0  0  0  0  0  0  0  0  0  0
   11.4214   -6.2656  -14.7602 C   0  0  0  0  0  0  0  0  0  0  0  0
   12.1482   -6.0957  -16.3231 C   0  0  0  0  0  0  0  0  0  0  0  0
   12.2587   -7.0879  -16.3796 O   0  0  0  0  0  0  0  0  0  0  0  0
   11.7295   -5.6845  -15.5134 N   0  0  0  0  0  0  0  0  0  0  0  0
   11.6207   -4.7076  -15.4577 H   0  0  0  0  0  0  0  0  0  0  0  0
   12.4563   -5.5146  -17.0763 C   0  0  0  0  0  0  0  0  0  0  0  0
   14.1257   -5.4393  -17.5319 C   0  0  0  0  0  0  0  0  0  0  0  0
   14.2915   -4.7647  -16.8126 O   0  0  0  0  0  0  0  0  0  0  0  0
   13.2081   -5.8142  -17.6638 N   0  0  0  0  0  0  0  0  0  0  0  0
   13.0447   -6.4783  -18.3719 H   0  0  0  0  0  0  0  0  0  0  0  0
   14.8774   -5.7389  -18.1194 C   0  0  0  0  0  0  0  0  0  0  0  0
   15.7590   -5.2684  -18.0823 C   0  0  0  0  0  0  0  0  0  0  0  0
   15.2270   -7.3713  -18.5808 C   0  0  0  0  0  0  0  0  0  0  0  0
   15.8362   -7.4635  -17.7932 O   0  0  0  0  0  0  0  0  0  0  0  0
   14.7476   -6.5090  -18.7439 N   0  0  0  0  0  0  0  0  0  0  0  0
   14.1477   -6.4183  -19.5193 H   0  0  0  0  0  0  0  0  0  0  0  0
   15.0971   -8.1415  -19.2053 C   0  0  0  0  0  0  0  0  0  0  0  0
   13.4780   -8.6372  -19.5698 C   0  0  0  0  0  0  0  0  0  0  0  0
   13.4240   -9.1080  -18.6892 O   0  0  0  0  0  0  0  0  0  0  0  0
   14.3146   -8.1540  -19.8279 N   0  0  0  0  0  0  0  0  0  0  0  0
   14.3679   -7.6905  -20.6948 H   0  0  0  0  0  0  0  0  0  0  0  0
   12.6955   -8.6497  -20.1923 C   0  0  0  0  0  0  0  0  0  0  0  0
   11.3626   -7.5869  -19.8862 C   0  0  0  0  0  0  0  0  0  0  0  0
   11.8754   -6.8280  -20.2877 O   0  0  0  0  0  0  0  0  0  0  0  0
   11.7727   -8.4977  -19.8385 N   0  0  0  0  0  0  0  0  0  0  0  0
   11.2678   -9.2448  -19.4433 H   0  0  0  0  0  0  0  0  0  0  0  0
   10.2665   -7.4867  -18.5489 N   0  0  0  0  0  0  0  0  0  0  0  0
   10.4397   -7.4349  -19.5324 C   0  0  0  0  0  0  0  0  0  0  0  0
    9.3252   -7.3317  -18.1879 H   0  0  0  0  0  0  0  0  0  0  0  0
   11.0312   -7.6946  -17.9066 H   0  0  0  0  0  0  0  0  0  0  0  0
    9.6900   -7.2311  -20.1621 C   0  0  0  0  0  0  0  0  0  0  0  0
    9.4602   -7.8758  -20.8911 O   0  0  0  0  0  0  0  0  0  0  0  0
    9.1702   -6.3826  -20.0626 C   0  0  0  0  0  0  0  0  0  0  0  0
    9.9645   -8.6988  -20.9876 H   0  0  0  0  0  0  0  0  0  0  0  0
   12.8359   -8.8142  -21.1687 C   0  0  0  0  0  0  0  0  0  0  0  0
   12.7036   -9.7310  -21.5453 C   0  0  0  0  0  0  0  0  0  0  0  0
   13.0757   -9.9606  -22.4447 C   0  0  0  0  0  0  0  0  0  0  0  0
   14.0581  -10.1097  -22.5562 O   0  0  0  0  0  0  0  0  0  0  0  0
   12.4651  -10.0411  -23.2326 N   0  0  0  0  0  0  0  0  0  0  0  0
   11.4979   -9.8942  -23.1228 H   0  0  0  0  0  0  0  0  0  0  0  0
   12.8314  -10.2671  -24.1181 H   0  0  0  0  0  0  0  0  0  0  0  0
   15.7498   -8.8992  -19.2073 C   0  0  0  0  0  0  0  0  0  0  0  0
   16.3532   -9.0371  -19.9926 C   0  0  0  0  0  0  0  0  0  0  0  0
   16.8548   -9.8964  -20.0928 C   0  0  0  0  0  0  0  0  0  0  0  0
   17.7443  -10.0106  -19.6505 O   0  0  0  0  0  0  0  0  0  0  0  0
   16.4669  -10.6415  -20.6355 N   0  0  0  0  0  0  0  0  0  0  0  0
   15.5912  -10.5291  -21.0710 H   0  0  0  0  0  0  0  0  0  0  0  0
   16.9608  -11.4875  -20.7341 H   0  0  0  0  0  0  0  0  0  0  0  0
   12.0127   -4.6338  -17.2421 C   0  0  0  0  0  0  0  0  0  0  0  0
   11.4130   -4.5172  -18.0338 O   0  0  0  0  0  0  0  0  0  0  0  0
   10.9827   -3.6628  -18.1946 H   0  0  0  0  0  0  0  0  0  0  0  0
   10.5181   -6.6933  -14.7958 C   0  0  0  0  0  0  0  0  0  0  0  0
    9.6965   -6.1382  -14.6656 C   0  0  0  0  0  0  0  0  0  0  0  0
    9.0988   -5.7943  -15.3898 C   0  0  0  0  0  0  0  0  0  0  0  0
    8.3613   -5.2731  -14.9602 N   0  0  0  0  0  0  0  0  0  0  0  0
    8.5033   -5.2950  -13.9705 C   0  0  0  0  0  0  0  0  0  0  0  0
    9.3285   -5.8297  -13.7886 N   0  0  0  0  0  0  0  0  0  0  0  0
    9.7114   -6.0191  -12.9015 H   0  0  0  0  0  0  0  0  0  0  0  0
 95 96  1  0  0  0
 95 97  1  0  0  0
 95 98  1  0  0  0
 96 91  1  0  0  0
 96 99  1  0  0  0
 91 92  2  0  0  0
 91 93  1  0  0  0
 93 90  1  0  0  0
 93 94  1  0  0  0
 90103  1  0  0  0
 90 86  1  0  0  0
103104  1  0  0  0
104105  1  0  0  0
105106  2  0  0  0
105107  1  0  0  0
107108  1  0  0  0
107109  1  0  0  0
 86 87  2  0  0  0
 86 88  1  0  0  0
 88 85  1  0  0  0
 88 89  1  0  0  0
 85110  1  0  0  0
 85 81  1  0  0  0
110111  1  0  0  0
111112  1  0  0  0
112113  2  0  0  0
112114  1  0  0  0
114115  1  0  0  0
114116  1  0  0  0
 81 82  2  0  0  0
 81 83  1  0  0  0
 83 79  1  0  0  0
 83 84  1  0  0  0
 79 80  1  0  0  0
 79 75  1  0  0  0
 75 76  2  0  0  0
 75 77  1  0  0  0
 77 74  1  0  0  0
 77 78  1  0  0  0
 74117  1  0  0  0
 74 70  1  0  0  0
117118  1  0  0  0
118119  1  0  0  0
 70 71  2  0  0  0
 70 72  1  0  0  0
 72 69  1  0  0  0
 72 73  1  0  0  0
 69120  1  0  0  0
 69 65  1  0  0  0
120121  1  0  0  0
121125  1  0  0  0
121122  2  0  0  0
122123  1  0  0  0
123124  2  0  0  0
124125  1  0  0  0
125126  1  0  0  0
 65 66  2  0  0  0
 65 67  1  0  0  0
 67  1  1  0  0  0
 67 68  1  0  0  0
  1  2  1  0  0  0
  1 10  1  0  0  0
  2  8  2  0  0  0
  2  3  1  0  0  0
  3  4  2  0  0  0
  4  5  1  0  0  0
  5  6  1  0  0  0
  5  7  2  0  0  0
  6  9  1  0  0  0
  7  8  1  0  0  0
 10 11  2  0  0  0
 10 12  1  0  0  0
 12 14  1  0  0  0
 12 13  1  0  0  0
 14 58  1  0  0  0
 14 15  1  0  0  0
 58 59  1  0  0  0
 59 60  1  0  0  0
 60 61  1  0  0  0
 61 62  1  0  0  0
 62 63  1  0  0  0
 62 64  1  0  0  0
 15 16  2  0  0  0
 15 17  1  0  0  0
 17 19  1  0  0  0
 17 18  1  0  0  0
 19 51  1  0  0  0
 19 20  1  0  0  0
 51 52  1  0  0  0
 52 53  1  0  0  0
 53 54  2  0  0  0
 53 55  1  0  0  0
 55 56  1  0  0  0
 55 57  1  0  0  0
 20 21  2  0  0  0
 20 22  1  0  0  0
 22 24  1  0  0  0
 22 23  1  0  0  0
 24 44  1  0  0  0
 24 25  1  0  0  0
 44 45  1  0  0  0
 45 49  1  0  0  0
 45 46  2  0  0  0
 46 47  1  0  0  0
 47 48  2  0  0  0
 48 49  1  0  0  0
 49 50  1  0  0  0
 25 26  2  0  0  0
 25 27  1  0  0  0
 27 29  1  0  0  0
 27 28  1  0  0  0
 29 41  1  0  0  0
 29 30  1  0  0  0
 41 42  1  0  0  0
 42 43  1  0  0  0
 30 31  2  0  0  0
 30 32  1  0  0  0
 32 36  1  0  0  0
 32 33  1  0  0  0
 33 34  1  0  0  0
 34 35  1  0  0  0
 35 36  1  0  0  0
 36 37  1  0  0  0
 37 38  1  0  0  0
 37 39  2  0  0  0
 38 40  1  0  0  0
 99100  1  0  0  0
 99101  1  0  0  0
100102  1  0  0  0
M  END
> <minimizedAffinity>
-4.59042

$$$$



126129  0  0  0  0  0  0  0  0999 V2000
   16.8152  -13.7803  -11.4303 C   0  0  0  0  0  0  0  0  0  0  0  0
   16.4414  -14.7078  -11.4358 C   0  0  0  0  0  0  0  0  0  0  0  0
   16.1515  -15.1249  -12.2972 C   0  0  0  0  0  0  0  0  0  0  0  0
   15.7777  -16.0525  -12.3027 C   0  0  0  0  0  0  0  0  0  0  0  0
   15.6939  -16.5629  -11.4469 C   0  0  0  0  0  0  0  0  0  0  0  0
   15.3202  -17.4904  -11.4525 O   0  0  0  0  0  0  0  0  0  0  0  0
   15.9839  -16.1458  -10.5855 C   0  0  0  0  0  0  0  0  0  0  0  0
   16.3577  -15.2184  -10.5800 C   0  0  0  0  0  0  0  0  0  0  0  0
   15.0485  -17.8812  -12.2596 H   0  0  0  0  0  0  0  0  0  0  0  0
   16.2347  -13.0059  -11.6818 C   0  0  0  0  0  0  0  0  0  0  0  0
   15.4114  -13.1552  -12.2294 O   0  0  0  0  0  0  0  0  0  0  0  0
   16.4776  -12.0822  -11.3857 N   0  0  0  0  0  0  0  0  0  0  0  0
   17.2881  -11.9352  -10.8465 H   0  0  0  0  0  0  0  0  0  0  0  0
   15.8971  -11.3076  -11.6372 C   0  0  0  0  0  0  0  0  0  0  0  0
   16.0627  -10.8154  -12.4917 C   0  0  0  0  0  0  0  0  0  0  0  0
   16.9864  -10.5084  -12.7209 O   0  0  0  0  0  0  0  0  0  0  0  0
   15.3047  -10.6300  -13.1170 N   0  0  0  0  0  0  0  0  0  0  0  0
   14.3953  -10.9322  -12.8913 H   0  0  0  0  0  0  0  0  0  0  0  0
   15.4703  -10.1378  -13.9715 C   0  0  0  0  0  0  0  0  0  0  0  0
   15.1933   -9.1809  -14.0591 C   0  0  0  0  0  0  0  0  0  0  0  0
   14.2386   -8.9522  -14.2496 O   0  0  0  0  0  0  0  0  0  0  0  0
   15.8709   -8.4527  -13.9561 N   0  0  0  0  0  0  0  0  0  0  0  0
   16.8108   -8.6779  -13.7686 H   0  0  0  0  0  0  0  0  0  0  0  0
   15.5939   -7.4959  -14.0437 C   0  0  0  0  0  0  0  0  0  0  0  0
   15.3377   -6.9731  -13.2307 C   0  0  0  0  0  0  0  0  0  0  0  0
   15.8970   -7.0290  -12.4036 O   0  0  0  0  0  0  0  0  0  0  0  0
   14.5223   -6.3944  -13.2447 N   0  0  0  0  0  0  0  0  0  0  0  0
   13.9717   -6.3394  -14.0590 H   0  0  0  0  0  0  0  0  0  0  0  0
   14.2661   -5.8717  -12.4316 C   0  0  0  0  0  0  0  0  0  0  0  0
   13.4915   -6.1657  -11.8717 C   0  0  0  0  0  0  0  0  0  0  0  0
   13.6213   -6.3548  -10.8984 O   0  0  0  0  0  0  0  0  0  0  0  0
   12.5869   -6.2706  -12.2852 N   0  0  0  0  0  0  0  0  0  0  0  0
   12.3565   -6.1065  -13.2443 C   0  0  0  0  0  0  0  0  0  0  0  0
   11.3813   -6.2925  -13.3639 C   0  0  0  0  0  0  0  0  0  0  0  0
   11.0090   -6.5714  -12.4787 C   0  0  0  0  0  0  0  0  0  0  0  0
   11.7542   -6.5579  -11.8120 C   0  0  0  0  0  0  0  0  0  0  0  0
   11.6796   -6.7907  -10.8424 C   0  0  0  0  0  0  0  0  0  0  0  0
   11.3629   -6.1055  -10.1865 O   0  0  0  0  0  0  0  0  0  0  0  0
   11.9217   -7.7089  -10.5286 O   0  0  0  0  0  0  0  0  0  0  0  0
   11.1361   -5.2452  -10.4805 H   0  0  0  0  0  0  0  0  0  0  0  0
   14.7846   -5.0549  -12.1784 C   0  0  0  0  0  0  0  0  0  0  0  0
   14.5875   -4.1803  -12.6213 S   0  0  0  0  0  0  0  0  0  0  0  0
   13.6143   -4.1016  -13.5681 H   0  0  0  0  0  0  0  0  0  0  0  0
   15.5731   -7.0618  -14.9443 C   0  0  0  0  0  0  0  0  0  0  0  0
   16.4282   -6.8166  -15.4011 C   0  0  0  0  0  0  0  0  0  0  0  0
   16.8029   -7.2515  -16.2200 C   0  0  0  0  0  0  0  0  0  0  0  0
   17.6649   -6.7972  -16.4442 N   0  0  0  0  0  0  0  0  0  0  0  0
   17.8232   -6.0814  -15.7639 C   0  0  0  0  0  0  0  0  0  0  0  0
   17.0587   -6.0935  -15.1193 N   0  0  0  0  0  0  0  0  0  0  0  0
   16.9467   -5.4979  -14.3434 H   0  0  0  0  0  0  0  0  0  0  0  0
   15.9130  -10.6023  -14.7384 C   0  0  0  0  0  0  0  0  0  0  0  0
   15.3815  -11.2088  -15.3298 C   0  0  0  0  0  0  0  0  0  0  0  0
   15.8474  -11.8845  -15.9011 C   0  0  0  0  0  0  0  0  0  0  0  0
   16.2116  -12.7205  -15.4906 O   0  0  0  0  0  0  0  0  0  0  0  0
   15.9490  -11.7242  -16.8829 N   0  0  0  0  0  0  0  0  0  0  0  0
   15.5904  -10.9012  -17.2870 H   0  0  0  0  0  0  0  0  0  0  0  0
   16.4077  -12.3894  -17.4454 H   0  0  0  0  0  0  0  0  0  0  0  0
   15.1510  -11.0254  -11.0341 C   0  0  0  0  0  0  0  0  0  0  0  0
   15.3412  -10.4485  -10.2396 C   0  0  0  0  0  0  0  0  0  0  0  0
   14.8031   -9.6204  -10.0828 C   0  0  0  0  0  0  0  0  0  0  0  0
   15.0964   -8.9564   -9.3950 C   0  0  0  0  0  0  0  0  0  0  0  0
   14.4699   -8.6827   -8.6651 N   0  0  0  0  0  0  0  0  0  0  0  0
   13.5318   -9.0809   -8.6222 H   0  0  0  0  0  0  0  0  0  0  0  0
   14.7690   -8.0054   -7.9636 H   0  0  0  0  0  0  0  0  0  0  0  0
   18.4742  -13.5677  -11.8800 C   0  0  0  0  0  0  0  0  0  0  0  0
   18.2249  -13.6612  -12.8440 O   0  0  0  0  0  0  0  0  0  0  0  0
   17.7694  -13.6273  -11.1732 N   0  0  0  0  0  0  0  0  0  0  0  0
   18.0148  -13.5353  -10.2242 H   0  0  0  0  0  0  0  0  0  0  0  0
   19.4284  -13.4147  -11.6229 C   0  0  0  0  0  0  0  0  0  0  0  0
   19.9675  -12.0339  -10.7269 C   0  0  0  0  0  0  0  0  0  0  0  0
   19.7674  -12.5110   -9.8712 O   0  0  0  0  0  0  0  0  0  0  0  0
   19.7980  -12.4857  -11.6027 N   0  0  0  0  0  0  0  0  0  0  0  0
   19.9950  -12.0160  -12.4453 H   0  0  0  0  0  0  0  0  0  0  0  0
   20.3371  -11.1049  -10.7067 C   0  0  0  0  0  0  0  0  0  0  0  0
   21.9386  -10.7246  -11.2455 C   0  0  0  0  0  0  0  0  0  0  0  0
   21.6032  -10.6415  -12.1839 O   0  0  0  0  0  0  0  0  0  0  0  0
   21.3056  -10.9563  -10.5069 N   0  0  0  0  0  0  0  0  0  0  0  0
   21.6357  -11.0382   -9.5831 H   0  0  0  0  0  0  0  0  0  0  0  0
   22.9071  -10.5760  -11.0457 C   0  0  0  0  0  0  0  0  0  0  0  0
   23.4356   -9.9241  -11.5895 C   0  0  0  0  0  0  0  0  0  0  0  0
   23.8776  -11.9033  -10.5014 C   0  0  0  0  0  0  0  0  0  0  0  0
   23.9679  -12.2240  -11.4443 O   0  0  0  0  0  0  0  0  0  0  0  0
   23.3472  -11.0794  -10.3021 N   0  0  0  0  0  0  0  0  0  0  0  0
   23.2583  -10.7637   -9.3738 H   0  0  0  0  0  0  0  0  0  0  0  0
   24.3178  -12.4068   -9.7578 C   0  0  0  0  0  0  0  0  0  0  0  0
   23.6254  -13.3304   -8.4665 C   0  0  0  0  0  0  0  0  0  0  0  0
   23.7426  -12.5535   -7.8480 O   0  0  0  0  0  0  0  0  0  0  0  0
   23.9130  -13.2571   -9.4214 N   0  0  0  0  0  0  0  0  0  0  0  0
   23.7976  -14.0219  -10.0305 H   0  0  0  0  0  0  0  0  0  0  0  0
   23.2206  -14.1807   -8.1302 C   0  0  0  0  0  0  0  0  0  0  0  0
   21.5634  -14.3991   -7.6763 C   0  0  0  0  0  0  0  0  0  0  0  0
   21.3435  -14.6754   -8.6118 O   0  0  0  0  0  0  0  0  0  0  0  0
   22.5019  -14.1518   -7.4354 N   0  0  0  0  0  0  0  0  0  0  0  0
   22.7184  -13.8798   -6.5143 H   0  0  0  0  0  0  0  0  0  0  0  0
   20.3607  -15.2076   -6.7276 N   0  0  0  0  0  0  0  0  0  0  0  0
   20.8447  -14.3702   -6.9814 C   0  0  0  0  0  0  0  0  0  0  0  0
   19.6277  -15.1781   -6.0190 H   0  0  0  0  0  0  0  0  0  0  0  0
   20.6000  -16.0913   -7.1774 H   0  0  0  0  0  0  0  0  0  0  0  0
   20.6101  -13.5039   -6.5405 C   0  0  0  0  0  0  0  0  0  0  0  0
   20.2312  -12.7536   -7.0822 O   0  0  0  0  0  0  0  0  0  0  0  0
   20.7545  -13.3878   -5.5578 C   0  0  0  0  0  0  0  0  0  0  0  0
   20.0911  -12.8662   -8.0354 H   0  0  0  0  0  0  0  0  0  0  0  0
   23.5344  -15.0599   -8.4886 C   0  0  0  0  0  0  0  0  0  0  0  0
   24.1946  -15.6040   -7.9708 C   0  0  0  0  0  0  0  0  0  0  0  0
   24.5497  -16.4568   -8.3538 C   0  0  0  0  0  0  0  0  0  0  0  0
   25.4535  -16.4749   -8.7813 O   0  0  0  0  0  0  0  0  0  0  0  0
   24.0008  -17.2915   -8.3094 N   0  0  0  0  0  0  0  0  0  0  0  0
   23.1110  -17.2737   -7.8886 H   0  0  0  0  0  0  0  0  0  0  0  0
   24.3503  -18.1311   -8.6865 H   0  0  0  0  0  0  0  0  0  0  0  0
   25.1627  -12.0599   -9.3506 C   0  0  0  0  0  0  0  0  0  0  0  0
   26.0453  -12.4336   -9.6357 C   0  0  0  0  0  0  0  0  0  0  0  0
   26.8891  -12.0983   -9.2168 C   0  0  0  0  0  0  0  0  0  0  0  0
   27.6418  -11.7807   -9.7935 O   0  0  0  0  0  0  0  0  0  0  0  0
   26.9802  -12.0804   -8.2211 N   0  0  0  0  0  0  0  0  0  0  0  0
   26.2392  -12.3930   -7.6533 H   0  0  0  0  0  0  0  0  0  0  0  0
   27.8110  -11.7503   -7.8086 H   0  0  0  0  0  0  0  0  0  0  0  0
   19.7381  -10.3246  -10.8864 C   0  0  0  0  0  0  0  0  0  0  0  0
   18.9015  -10.2030  -10.3523 O   0  0  0  0  0  0  0  0  0  0  0  0
   18.3205   -9.4460  -10.5266 H   0  0  0  0  0  0  0  0  0  0  0  0
   20.0131  -14.1907  -11.3860 C   0  0  0  0  0  0  0  0  0  0  0  0
   20.6792  -14.5352  -12.0474 C   0  0  0  0  0  0  0  0  0  0  0  0
   20.7175  -15.4651  -12.4131 C   0  0  0  0  0  0  0  0  0  0  0  0
   21.4860  -15.5149  -13.0511 N   0  0  0  0  0  0  0  0  0  0  0  0
   21.9227  -14.6157  -13.0796 C   0  0  0  0  0  0  0  0  0  0  0  0
   21.4240  -14.0102  -12.4593 N   0  0  0  0  0  0  0  0  0  0  0  0
   21.6302  -13.0635  -12.2848 H   0  0  0  0  0  0  0  0  0  0  0  0
 95 96  1  0  0  0
 95 97  1  0  0  0
 95 98  1  0  0  0
 96 91  1  0  0  0
 96 99  1  0  0  0
 91 92  2  0  0  0
 91 93  1  0  0  0
 93 90  1  0  0  0
 93 94  1  0  0  0
 90103  1  0  0  0
 90 86  1  0  0  0
103104  1  0  0  0
104105  1  0  0  0
105106  2  0  0  0
105107  1  0  0  0
107108  1  0  0  0
107109  1  0  0  0
 86 87  2  0  0  0
 86 88  1  0  0  0
 88 85  1  0  0  0
 88 89  1  0  0  0
 85110  1  0  0  0
 85 81  1  0  0  0
110111  1  0  0  0
111112  1  0  0  0
112113  2  0  0  0
112114  1  0  0  0
114115  1  0  0  0
114116  1  0  0  0
 81 82  2  0  0  0
 81 83  1  0  0  0
 83 79  1  0  0  0
 83 84  1  0  0  0
 79 80  1  0  0  0
 79 75  1  0  0  0
 75 76  2  0  0  0
 75 77  1  0  0  0
 77 74  1  0  0  0
 77 78  1  0  0  0
 74117  1  0  0  0
 74 70  1  0  0  0
117118  1  0  0  0
118119  1  0  0  0
 70 71  2  0  0  0
 70 72  1  0  0  0
 72 69  1  0  0  0
 72 73  1  0  0  0
 69120  1  0  0  0
 69 65  1  0  0  0
120121  1  0  0  0
121125  1  0  0  0
121122  2  0  0  0
122123  1  0  0  0
123124  2  0  0  0
124125  1  0  0  0
125126  1  0  0  0
 65 66  2  0  0  0
 65 67  1  0  0  0
 67  1  1  0  0  0
 67 68  1  0  0  0
  1  2  1  0  0  0
  1 10  1  0  0  0
  2  8  2  0  0  0
  2  3  1  0  0  0
  3  4  2  0  0  0
  4  5  1  0  0  0
  5  6  1  0  0  0
  5  7  2  0  0  0
  6  9  1  0  0  0
  7  8  1  0  0  0
 10 11  2  0  0  0
 10 12  1  0  0  0
 12 14  1  0  0  0
 12 13  1  0  0  0
 14 58  1  0  0  0
 14 15  1  0  0  0
 58 59  1  0  0  0
 59 60  1  0  0  0
 60 61  1  0  0  0
 61 62  1  0  0  0
 62 63  1  0  0  0
 62 64  1  0  0  0
 15 16  2  0  0  0
 15 17  1  0  0  0
 17 19  1  0  0  0
 17 18  1  0  0  0
 19 51  1  0  0  0
 19 20  1  0  0  0
 51 52  1  0  0  0
 52 53  1  0  0  0
 53 54  2  0  0  0
 53 55  1  0  0  0
 55 56  1  0  0  0
 55 57  1  0  0  0
 20 21  2  0  0  0
 20 22  1  0  0  0
 22 24  1  0  0  0
 22 23  1  0  0  0
 24 44  1  0  0  0
 24 25  1  0  0  0
 44 45  1  0  0  0
 45 49  1  0  0  0
 45 46  2  0  0  0
 46 47  1  0  0  0
 47 48  2  0  0  0
 48 49  1  0  0  0
 49 50  1  0  0  0
 25 26  2  0  0  0
 25 27  1  0  0  0
 27 29  1  0  0  0
 27 28  1  0  0  0
 29 41  1  0  0  0
 29 30  1  0  0  0
 41 42  1  0  0  0
 42 43  1  0  0  0
 30 31  2  0  0  0
 30 32  1  0  0  0
 32 36  1  0  0  0
 32 33  1  0  0  0
 33 34  1  0  0  0
 34 35  1  0  0  0
 35 36  1  0  0  0
 36 37  1  0  0  0
 37 38  1  0  0  0
 37 39  2  0  0  0
 38 40  1  0  0  0
 99100  1  0  0  0
 99101  1  0  0  0
100102  1  0  0  0
M  END
> <minimizedAffinity>
-4.56455

$$$$



126129  0  0  0  0  0  0  0  0999 V2000
   25.9036  -13.8367    8.9197 C   0  0  0  0  0  0  0  0  0  0  0  0
   25.3795  -13.5391    9.7176 C   0  0  0  0  0  0  0  0  0  0  0  0
   25.0863  -14.2076   10.4010 C   0  0  0  0  0  0  0  0  0  0  0  0
   24.5621  -13.9099   11.1990 C   0  0  0  0  0  0  0  0  0  0  0  0
   24.3312  -12.9437   11.3135 C   0  0  0  0  0  0  0  0  0  0  0  0
   23.8070  -12.6460   12.1114 O   0  0  0  0  0  0  0  0  0  0  0  0
   24.6244  -12.2751   10.6300 C   0  0  0  0  0  0  0  0  0  0  0  0
   25.1485  -12.5728    9.8321 C   0  0  0  0  0  0  0  0  0  0  0  0
   23.5323  -13.2724   12.7518 H   0  0  0  0  0  0  0  0  0  0  0  0
   25.4302  -14.2043    8.1193 C   0  0  0  0  0  0  0  0  0  0  0  0
   25.3374  -13.6476    7.2938 O   0  0  0  0  0  0  0  0  0  0  0  0
   25.0495  -15.1287    8.1444 N   0  0  0  0  0  0  0  0  0  0  0  0
   25.1409  -15.6768    8.9571 H   0  0  0  0  0  0  0  0  0  0  0  0
   24.5761  -15.4964    7.3439 C   0  0  0  0  0  0  0  0  0  0  0  0
   25.0588  -16.1032    6.7124 C   0  0  0  0  0  0  0  0  0  0  0  0
   25.5850  -16.8765    7.0660 O   0  0  0  0  0  0  0  0  0  0  0  0
   25.0153  -15.9366    5.7273 N   0  0  0  0  0  0  0  0  0  0  0  0
   24.4973  -15.1752    5.3793 H   0  0  0  0  0  0  0  0  0  0  0  0
   25.4980  -16.5433    5.0959 C   0  0  0  0  0  0  0  0  0  0  0  0
   24.9952  -17.2511    4.5998 C   0  0  0  0  0  0  0  0  0  0  0  0
   25.4598  -18.0910    4.3192 O   0  0  0  0  0  0  0  0  0  0  0  0
   24.0275  -17.1192    4.3844 N   0  0  0  0  0  0  0  0  0  0  0  0
   23.5701  -16.2924    4.6607 H   0  0  0  0  0  0  0  0  0  0  0  0
   23.5247  -17.8270    3.8884 C   0  0  0  0  0  0  0  0  0  0  0  0
   23.4330  -17.7715    2.8942 C   0  0  0  0  0  0  0  0  0  0  0  0
   23.2201  -16.8963    2.4598 O   0  0  0  0  0  0  0  0  0  0  0  0
   23.5542  -18.5912    2.3343 N   0  0  0  0  0  0  0  0  0  0  0  0
   23.7638  -19.4528    2.7620 H   0  0  0  0  0  0  0  0  0  0  0  0
   23.4626  -18.5357    1.3401 C   0  0  0  0  0  0  0  0  0  0  0  0
   24.2777  -18.5533    0.7611 C   0  0  0  0  0  0  0  0  0  0  0  0
   24.4561  -17.8019    0.1258 O   0  0  0  0  0  0  0  0  0  0  0  0
   24.9145  -19.3224    0.8174 N   0  0  0  0  0  0  0  0  0  0  0  0
   24.8247  -20.1171    1.4176 C   0  0  0  0  0  0  0  0  0  0  0  0
   25.6075  -20.7175    1.2544 C   0  0  0  0  0  0  0  0  0  0  0  0
   26.1811  -20.2939    0.5534 C   0  0  0  0  0  0  0  0  0  0  0  0
   25.7528  -19.4316    0.2832 C   0  0  0  0  0  0  0  0  0  0  0  0
   26.1015  -18.7911   -0.4009 C   0  0  0  0  0  0  0  0  0  0  0  0
   26.7020  -18.0411   -0.1234 O   0  0  0  0  0  0  0  0  0  0  0  0
   25.8498  -18.9005   -1.3625 O   0  0  0  0  0  0  0  0  0  0  0  0
   26.9379  -17.9386    0.7776 H   0  0  0  0  0  0  0  0  0  0  0  0
   22.5558  -18.4626    0.9248 C   0  0  0  0  0  0  0  0  0  0  0  0
   21.9923  -19.2803    0.8072 S   0  0  0  0  0  0  0  0  0  0  0  0
   22.4591  -20.4918    1.2120 H   0  0  0  0  0  0  0  0  0  0  0  0
   23.1134  -18.5903    4.3866 C   0  0  0  0  0  0  0  0  0  0  0  0
   22.2874  -18.4449    4.9312 C   0  0  0  0  0  0  0  0  0  0  0  0
   21.5554  -17.7950    4.7268 C   0  0  0  0  0  0  0  0  0  0  0  0
   20.8640  -17.8723    5.4450 N   0  0  0  0  0  0  0  0  0  0  0  0
   21.1687  -18.5701    6.0935 C   0  0  0  0  0  0  0  0  0  0  0  0
   22.0484  -18.9239    5.7758 N   0  0  0  0  0  0  0  0  0  0  0  0
   22.5850  -19.6215    6.2172 H   0  0  0  0  0  0  0  0  0  0  0  0
   26.4837  -16.4422    4.9604 C   0  0  0  0  0  0  0  0  0  0  0  0
   26.8323  -15.7698    4.3075 C   0  0  0  0  0  0  0  0  0  0  0  0
   27.7892  -15.8022    4.0192 C   0  0  0  0  0  0  0  0  0  0  0  0
   28.4700  -15.2333    4.4808 O   0  0  0  0  0  0  0  0  0  0  0  0
   28.0655  -16.4034    3.2694 N   0  0  0  0  0  0  0  0  0  0  0  0
   27.3952  -16.9634    2.8151 H   0  0  0  0  0  0  0  0  0  0  0  0
   29.0077  -16.4353    2.9856 H   0  0  0  0  0  0  0  0  0  0  0  0
   23.6199  -15.2573    7.1750 C   0  0  0  0  0  0  0  0  0  0  0  0
   22.8967  -15.6636    7.7337 C   0  0  0  0  0  0  0  0  0  0  0  0
   21.9514  -15.3544    7.6299 C   0  0  0  0  0  0  0  0  0  0  0  0
   21.2385  -15.7151    8.2313 C   0  0  0  0  0  0  0  0  0  0  0  0
   20.2789  -15.6675    7.9537 N   0  0  0  0  0  0  0  0  0  0  0  0
   20.0274  -15.2509    7.0572 H   0  0  0  0  0  0  0  0  0  0  0  0
   19.5517  -16.0354    8.5670 H   0  0  0  0  0  0  0  0  0  0  0  0
   27.4557  -14.5383    9.2339 C   0  0  0  0  0  0  0  0  0  0  0  0
   27.0127  -15.3799    9.5430 O   0  0  0  0  0  0  0  0  0  0  0  0
   26.9011  -13.7667    8.9222 N   0  0  0  0  0  0  0  0  0  0  0  0
   27.3372  -12.9382    8.6179 H   0  0  0  0  0  0  0  0  0  0  0  0
   28.4533  -14.4683    9.2364 C   0  0  0  0  0  0  0  0  0  0  0  0
   29.2969  -15.3167    7.9840 C   0  0  0  0  0  0  0  0  0  0  0  0
   29.0277  -14.6134    7.3262 O   0  0  0  0  0  0  0  0  0  0  0  0
   29.0097  -15.2442    8.9392 N   0  0  0  0  0  0  0  0  0  0  0  0
   29.2747  -15.9366    9.5869 H   0  0  0  0  0  0  0  0  0  0  0  0
   29.8533  -16.0926    7.6868 C   0  0  0  0  0  0  0  0  0  0  0  0
   29.2967  -17.6933    7.3291 C   0  0  0  0  0  0  0  0  0  0  0  0
   29.4847  -17.9693    8.2717 O   0  0  0  0  0  0  0  0  0  0  0  0
   29.4810  -16.7550    7.0367 N   0  0  0  0  0  0  0  0  0  0  0  0
   29.2959  -16.4832    6.1087 H   0  0  0  0  0  0  0  0  0  0  0  0
   28.9244  -18.3557    6.6790 C   0  0  0  0  0  0  0  0  0  0  0  0
   29.4370  -18.5872    5.8522 C   0  0  0  0  0  0  0  0  0  0  0  0
   27.8811  -19.7347    6.5800 C   0  0  0  0  0  0  0  0  0  0  0  0
   28.6077  -20.2519    6.1278 O   0  0  0  0  0  0  0  0  0  0  0  0
   28.0395  -18.7866    6.8556 N   0  0  0  0  0  0  0  0  0  0  0  0
   27.3241  -18.2773    7.3009 H   0  0  0  0  0  0  0  0  0  0  0  0
   26.9961  -20.1656    6.7567 C   0  0  0  0  0  0  0  0  0  0  0  0
   26.4449  -20.3442    8.3889 C   0  0  0  0  0  0  0  0  0  0  0  0
   27.0255  -21.1512    8.4967 O   0  0  0  0  0  0  0  0  0  0  0  0
   26.4303  -19.8514    7.5190 N   0  0  0  0  0  0  0  0  0  0  0  0
   25.8588  -19.0568    7.4129 H   0  0  0  0  0  0  0  0  0  0  0  0
   25.8791  -20.0299    9.1512 C   0  0  0  0  0  0  0  0  0  0  0  0
   26.5866  -19.0183   10.3662 C   0  0  0  0  0  0  0  0  0  0  0  0
   26.4901  -18.2265    9.7631 O   0  0  0  0  0  0  0  0  0  0  0  0
   26.2810  -19.9200   10.0602 N   0  0  0  0  0  0  0  0  0  0  0  0
   26.3760  -20.6996   10.6540 H   0  0  0  0  0  0  0  0  0  0  0  0
   26.4544  -19.1373   12.0891 N   0  0  0  0  0  0  0  0  0  0  0  0
   26.9886  -18.9085   11.2753 C   0  0  0  0  0  0  0  0  0  0  0  0
   26.8644  -19.0252   13.0163 H   0  0  0  0  0  0  0  0  0  0  0  0
   25.4996  -19.4827   11.9919 H   0  0  0  0  0  0  0  0  0  0  0  0
   27.9246  -18.5698   11.3705 C   0  0  0  0  0  0  0  0  0  0  0  0
   28.6825  -19.0709   10.9527 O   0  0  0  0  0  0  0  0  0  0  0  0
   28.1028  -17.7301   11.8834 C   0  0  0  0  0  0  0  0  0  0  0  0
   28.5097  -19.8855   10.4552 H   0  0  0  0  0  0  0  0  0  0  0  0
   24.9113  -19.8256    9.0045 C   0  0  0  0  0  0  0  0  0  0  0  0
   24.2167  -20.5105    9.2246 C   0  0  0  0  0  0  0  0  0  0  0  0
   23.2894  -20.4167    8.8620 C   0  0  0  0  0  0  0  0  0  0  0  0
   23.0460  -20.8491    7.9938 O   0  0  0  0  0  0  0  0  0  0  0  0
   22.6056  -19.8906    9.3676 N   0  0  0  0  0  0  0  0  0  0  0  0
   22.8453  -19.4650   10.2223 H   0  0  0  0  0  0  0  0  0  0  0  0
   21.6928  -19.7984    9.0106 H   0  0  0  0  0  0  0  0  0  0  0  0
   26.6771  -20.9107    6.1711 C   0  0  0  0  0  0  0  0  0  0  0  0
   25.8969  -20.7688    5.5618 C   0  0  0  0  0  0  0  0  0  0  0  0
   25.4474  -21.5530    5.1341 C   0  0  0  0  0  0  0  0  0  0  0  0
   25.9460  -22.1178    4.4765 O   0  0  0  0  0  0  0  0  0  0  0  0
   24.4992  -21.7725    5.3641 N   0  0  0  0  0  0  0  0  0  0  0  0
   24.0084  -21.2165    6.0115 H   0  0  0  0  0  0  0  0  0  0  0  0
   24.0567  -22.5446    4.9430 H   0  0  0  0  0  0  0  0  0  0  0  0
   30.7820  -16.2062    8.0397 C   0  0  0  0  0  0  0  0  0  0  0  0
   31.5191  -15.6187    7.7058 O   0  0  0  0  0  0  0  0  0  0  0  0
   32.4200  -15.7289    8.0481 H   0  0  0  0  0  0  0  0  0  0  0  0
   28.8944  -13.6223    9.5362 C   0  0  0  0  0  0  0  0  0  0  0  0
   29.4870  -13.6256   10.3416 C   0  0  0  0  0  0  0  0  0  0  0  0
   29.3533  -14.1734   11.1674 C   0  0  0  0  0  0  0  0  0  0  0  0
   30.1011  -13.9681   11.7989 N   0  0  0  0  0  0  0  0  0  0  0  0
   30.6970  -13.2934   11.3632 C   0  0  0  0  0  0  0  0  0  0  0  0
   30.3174  -13.0818   10.4626 N   0  0  0  0  0  0  0  0  0  0  0  0
   30.6950  -12.4491    9.8096 H   0  0  0  0  0  0  0  0  0  0  0  0
 95 96  1  0  0  0
 95 97  1  0  0  0
 95 98  1  0  0  0
 96 91  1  0  0  0
 96 99  1  0  0  0
 91 92  2  0  0  0
 91 93  1  0  0  0
 93 90  1  0  0  0
 93 94  1  0  0  0
 90103  1  0  0  0
 90 86  1  0  0  0
103104  1  0  0  0
104105  1  0  0  0
105106  2  0  0  0
105107  1  0  0  0
107108  1  0  0  0
107109  1  0  0  0
 86 87  2  0  0  0
 86 88  1  0  0  0
 88 85  1  0  0  0
 88 89  1  0  0  0
 85110  1  0  0  0
 85 81  1  0  0  0
110111  1  0  0  0
111112  1  0  0  0
112113  2  0  0  0
112114  1  0  0  0
114115  1  0  0  0
114116  1  0  0  0
 81 82  2  0  0  0
 81 83  1  0  0  0
 83 79  1  0  0  0
 83 84  1  0  0  0
 79 80  1  0  0  0
 79 75  1  0  0  0
 75 76  2  0  0  0
 75 77  1  0  0  0
 77 74  1  0  0  0
 77 78  1  0  0  0
 74117  1  0  0  0
 74 70  1  0  0  0
117118  1  0  0  0
118119  1  0  0  0
 70 71  2  0  0  0
 70 72  1  0  0  0
 72 69  1  0  0  0
 72 73  1  0  0  0
 69120  1  0  0  0
 69 65  1  0  0  0
120121  1  0  0  0
121125  1  0  0  0
121122  2  0  0  0
122123  1  0  0  0
123124  2  0  0  0
124125  1  0  0  0
125126  1  0  0  0
 65 66  2  0  0  0
 65 67  1  0  0  0
 67  1  1  0  0  0
 67 68  1  0  0  0
  1  2  1  0  0  0
  1 10  1  0  0  0
  2  8  2  0  0  0
  2  3  1  0  0  0
  3  4  2  0  0  0
  4  5  1  0  0  0
  5  6  1  0  0  0
  5  7  2  0  0  0
  6  9  1  0  0  0
  7  8  1  0  0  0
 10 11  2  0  0  0
 10 12  1  0  0  0
 12 14  1  0  0  0
 12 13  1  0  0  0
 14 58  1  0  0  0
 14 15  1  0  0  0
 58 59  1  0  0  0
 59 60  1  0  0  0
 60 61  1  0  0  0
 61 62  1  0  0  0
 62 63  1  0  0  0
 62 64  1  0  0  0
 15 16  2  0  0  0
 15 17  1  0  0  0
 17 19  1  0  0  0
 17 18  1  0  0  0
 19 51  1  0  0  0
 19 20  1  0  0  0
 51 52  1  0  0  0
 52 53  1  0  0  0
 53 54  2  0  0  0
 53 55  1  0  0  0
 55 56  1  0  0  0
 55 57  1  0  0  0
 20 21  2  0  0  0
 20 22  1  0  0  0
 22 24  1  0  0  0
 22 23  1  0  0  0
 24 44  1  0  0  0
 24 25  1  0  0  0
 44 45  1  0  0  0
 45 49  1  0  0  0
 45 46  2  0  0  0
 46 47  1  0  0  0
 47 48  2  0  0  0
 48 49  1  0  0  0
 49 50  1  0  0  0
 25 26  2  0  0  0
 25 27  1  0  0  0
 27 29  1  0  0  0
 27 28  1  0  0  0
 29 41  1  0  0  0
 29 30  1  0  0  0
 41 42  1  0  0  0
 42 43  1  0  0  0
 30 31  2  0  0  0
 30 32  1  0  0  0
 32 36  1  0  0  0
 32 33  1  0  0  0
 33 34  1  0  0  0
 34 35  1  0  0  0
 35 36  1  0  0  0
 36 37  1  0  0  0
 37 38  1  0  0  0
 37 39  2  0  0  0
 38 40  1  0  0  0
 99100  1  0  0  0
 99101  1  0  0  0
100102  1  0  0  0
M  END
> <minimizedAffinity>
-4.56270

$$$$
