


126129  0  0  0  0  0  0  0  0999 V2000
   36.8470    3.6089   -0.2520 C   0  0  0  0  0  0  0  0  0  0  0  0
   37.0773    2.7972   -0.7887 C   0  0  0  0  0  0  0  0  0  0  0  0
   37.7479    2.8603   -1.5279 C   0  0  0  0  0  0  0  0  0  0  0  0
   37.9782    2.0485   -2.0646 C   0  0  0  0  0  0  0  0  0  0  0  0
   37.5380    1.1738   -1.8622 C   0  0  0  0  0  0  0  0  0  0  0  0
   37.7683    0.3621   -2.3989 O   0  0  0  0  0  0  0  0  0  0  0  0
   36.8674    1.1107   -1.1230 C   0  0  0  0  0  0  0  0  0  0  0  0
   36.6371    1.9224   -0.5863 C   0  0  0  0  0  0  0  0  0  0  0  0
   38.3966    0.4211   -3.0915 H   0  0  0  0  0  0  0  0  0  0  0  0
   35.8892    3.8435   -0.0863 C   0  0  0  0  0  0  0  0  0  0  0  0
   35.2870    3.1911    0.3738 O   0  0  0  0  0  0  0  0  0  0  0  0
   35.5335    4.7305   -0.3808 N   0  0  0  0  0  0  0  0  0  0  0  0
   36.1264    5.3728   -0.8338 H   0  0  0  0  0  0  0  0  0  0  0  0
   34.5756    4.9652   -0.2151 C   0  0  0  0  0  0  0  0  0  0  0  0
   34.3340    5.5800    0.5357 C   0  0  0  0  0  0  0  0  0  0  0  0
   34.7235    6.5002    0.5733 O   0  0  0  0  0  0  0  0  0  0  0  0
   33.7031    5.2745    1.2488 N   0  0  0  0  0  0  0  0  0  0  0  0
   33.3197    4.3685    1.2116 H   0  0  0  0  0  0  0  0  0  0  0  0
   33.4615    5.8892    1.9995 C   0  0  0  0  0  0  0  0  0  0  0  0
   32.6888    6.5166    1.9031 C   0  0  0  0  0  0  0  0  0  0  0  0
   32.8325    7.5029    1.9835 O   0  0  0  0  0  0  0  0  0  0  0  0
   31.7723    6.1576    1.7264 N   0  0  0  0  0  0  0  0  0  0  0  0
   31.6308    5.1866    1.6473 H   0  0  0  0  0  0  0  0  0  0  0  0
   30.9995    6.7850    1.6300 C   0  0  0  0  0  0  0  0  0  0  0  0
   30.6494    7.0110    0.7210 C   0  0  0  0  0  0  0  0  0  0  0  0
   30.4305    6.2808    0.0738 O   0  0  0  0  0  0  0  0  0  0  0  0
   30.5182    7.9671    0.4592 N   0  0  0  0  0  0  0  0  0  0  0  0
   30.7337    8.6859    1.0964 H   0  0  0  0  0  0  0  0  0  0  0  0
   30.1680    8.1931   -0.4498 C   0  0  0  0  0  0  0  0  0  0  0  0
   30.7975    8.4862   -1.1694 C   0  0  0  0  0  0  0  0  0  0  0  0
   30.8695    7.9589   -2.0160 O   0  0  0  0  0  0  0  0  0  0  0  0
   31.3550    9.3067   -1.0424 N   0  0  0  0  0  0  0  0  0  0  0  0
   31.3549    9.8983   -0.2362 C   0  0  0  0  0  0  0  0  0  0  0  0
   32.0103   10.6368   -0.3950 C   0  0  0  0  0  0  0  0  0  0  0  0
   32.4153   10.5016   -1.2992 C   0  0  0  0  0  0  0  0  0  0  0  0
   32.0102    9.6795   -1.6994 C   0  0  0  0  0  0  0  0  0  0  0  0
   32.2231    9.2974   -2.5986 C   0  0  0  0  0  0  0  0  0  0  0  0
   31.6976    9.5825   -3.4002 O   0  0  0  0  0  0  0  0  0  0  0  0
   32.9616    8.6301   -2.6963 O   0  0  0  0  0  0  0  0  0  0  0  0
   31.0058   10.2077   -3.3087 H   0  0  0  0  0  0  0  0  0  0  0  0
   29.1884    8.1260   -0.6392 C   0  0  0  0  0  0  0  0  0  0  0  0
   28.5722    8.8594   -0.3522 S   0  0  0  0  0  0  0  0  0  0  0  0
   29.0664    9.9482    0.2959 H   0  0  0  0  0  0  0  0  0  0  0  0
   30.5770    7.1864    2.4426 C   0  0  0  0  0  0  0  0  0  0  0  0
   30.1251    6.5983    3.1134 C   0  0  0  0  0  0  0  0  0  0  0  0
   29.3025    6.0518    2.9564 C   0  0  0  0  0  0  0  0  0  0  0  0
   29.0855    5.5692    3.8049 N   0  0  0  0  0  0  0  0  0  0  0  0
   29.7740    5.8175    4.4864 C   0  0  0  0  0  0  0  0  0  0  0  0
   30.4165    6.4535    4.0590 N   0  0  0  0  0  0  0  0  0  0  0  0
   31.1986    6.8649    4.4930 H   0  0  0  0  0  0  0  0  0  0  0  0
   33.9926    5.8766    2.8467 C   0  0  0  0  0  0  0  0  0  0  0  0
   34.0951    5.0246    3.3600 C   0  0  0  0  0  0  0  0  0  0  0  0
   34.6897    4.9932    4.1634 C   0  0  0  0  0  0  0  0  0  0  0  0
   34.3055    5.1350    5.0757 O   0  0  0  0  0  0  0  0  0  0  0  0
   35.6686    4.8201    4.0545 N   0  0  0  0  0  0  0  0  0  0  0  0
   36.0468    4.6805    3.1563 H   0  0  0  0  0  0  0  0  0  0  0  0
   36.2540    4.7892    4.8454 H   0  0  0  0  0  0  0  0  0  0  0  0
   33.8593    4.5851   -0.8003 C   0  0  0  0  0  0  0  0  0  0  0  0
   33.5809    5.0704   -1.6292 C   0  0  0  0  0  0  0  0  0  0  0  0
   32.7751    4.7683   -2.1386 C   0  0  0  0  0  0  0  0  0  0  0  0
   32.5963    5.1317   -3.0529 C   0  0  0  0  0  0  0  0  0  0  0  0
   32.5015    4.5083   -3.8290 N   0  0  0  0  0  0  0  0  0  0  0  0
   32.5870    3.5017   -3.6880 H   0  0  0  0  0  0  0  0  0  0  0  0
   32.3191    4.8790   -4.7616 H   0  0  0  0  0  0  0  0  0  0  0  0
   37.7680    4.1778    1.1001 C   0  0  0  0  0  0  0  0  0  0  0  0
   37.2339    3.5924    1.7102 O   0  0  0  0  0  0  0  0  0  0  0  0
   37.5745    4.1860    0.1190 N   0  0  0  0  0  0  0  0  0  0  0  0
   38.1003    4.7623   -0.4816 H   0  0  0  0  0  0  0  0  0  0  0  0
   38.4955    4.7549    1.4711 C   0  0  0  0  0  0  0  0  0  0  0  0
   38.2664    6.4713    1.4358 C   0  0  0  0  0  0  0  0  0  0  0  0
   37.6557    6.4060    2.2249 O   0  0  0  0  0  0  0  0  0  0  0  0
   38.6864    5.6457    1.0589 N   0  0  0  0  0  0  0  0  0  0  0  0
   39.2877    5.7100    0.2820 H   0  0  0  0  0  0  0  0  0  0  0  0
   38.4572    7.3622    1.0236 C   0  0  0  0  0  0  0  0  0  0  0  0
   37.6776    8.0906   -0.3407 C   0  0  0  0  0  0  0  0  0  0  0  0
   37.0574    8.5780    0.2739 O   0  0  0  0  0  0  0  0  0  0  0  0
   38.3775    7.4827    0.0341 N   0  0  0  0  0  0  0  0  0  0  0  0
   38.9881    7.0028   -0.5709 H   0  0  0  0  0  0  0  0  0  0  0  0
   37.5979    8.2111   -1.3302 C   0  0  0  0  0  0  0  0  0  0  0  0
   37.2449    9.0694   -1.7026 C   0  0  0  0  0  0  0  0  0  0  0  0
   37.1779    6.9722   -2.4654 C   0  0  0  0  0  0  0  0  0  0  0  0
   36.2114    7.2090   -2.3663 O   0  0  0  0  0  0  0  0  0  0  0  0
   37.8711    7.4733   -1.9474 N   0  0  0  0  0  0  0  0  0  0  0  0
   38.8226    7.2402   -2.0451 H   0  0  0  0  0  0  0  0  0  0  0  0
   37.4511    6.2343   -3.0827 C   0  0  0  0  0  0  0  0  0  0  0  0
   39.0784    5.8471   -3.5321 C   0  0  0  0  0  0  0  0  0  0  0  0
   39.0094    6.4656   -4.3148 O   0  0  0  0  0  0  0  0  0  0  0  0
   38.2992    5.7314   -2.9161 N   0  0  0  0  0  0  0  0  0  0  0  0
   38.3671    5.1224   -2.1455 H   0  0  0  0  0  0  0  0  0  0  0  0
   39.9265    5.3441   -3.3655 C   0  0  0  0  0  0  0  0  0  0  0  0
   41.1264    5.8985   -2.2462 C   0  0  0  0  0  0  0  0  0  0  0  0
   41.5222    6.4789   -2.9579 O   0  0  0  0  0  0  0  0  0  0  0  0
   40.3285    5.3312   -2.4500 N   0  0  0  0  0  0  0  0  0  0  0  0
   39.9388    4.7598   -1.7493 H   0  0  0  0  0  0  0  0  0  0  0  0
   41.8218    5.0196   -0.9256 N   0  0  0  0  0  0  0  0  0  0  0  0
   41.5284    5.8856   -1.3306 C   0  0  0  0  0  0  0  0  0  0  0  0
   42.2318    5.0063    0.0082 H   0  0  0  0  0  0  0  0  0  0  0  0
   41.7110    4.1496   -1.4464 H   0  0  0  0  0  0  0  0  0  0  0  0
   41.6369    6.7385   -0.8200 C   0  0  0  0  0  0  0  0  0  0  0  0
   41.0399    7.5169   -1.0141 O   0  0  0  0  0  0  0  0  0  0  0  0
   42.3425    6.8131   -0.1154 C   0  0  0  0  0  0  0  0  0  0  0  0
   40.3554    7.4445   -1.6976 H   0  0  0  0  0  0  0  0  0  0  0  0
   40.3726    4.8542   -4.1144 C   0  0  0  0  0  0  0  0  0  0  0  0
   40.1737    3.8861   -4.2671 C   0  0  0  0  0  0  0  0  0  0  0  0
   40.8179    3.3181   -4.7795 C   0  0  0  0  0  0  0  0  0  0  0  0
   41.6359    2.9596   -4.3297 O   0  0  0  0  0  0  0  0  0  0  0  0
   40.6439    3.1086   -5.7417 N   0  0  0  0  0  0  0  0  0  0  0  0
   39.8386    3.4615   -6.1845 H   0  0  0  0  0  0  0  0  0  0  0  0
   41.2780    2.5494   -6.2461 H   0  0  0  0  0  0  0  0  0  0  0  0
   36.8762    5.9994   -3.8664 C   0  0  0  0  0  0  0  0  0  0  0  0
   36.3292    5.1624   -3.8522 C   0  0  0  0  0  0  0  0  0  0  0  0
   35.9277    4.8131   -4.6988 C   0  0  0  0  0  0  0  0  0  0  0  0
   35.2750    5.3719   -5.2104 O   0  0  0  0  0  0  0  0  0  0  0  0
   36.1789    3.9050   -5.0339 N   0  0  0  0  0  0  0  0  0  0  0  0
   36.8215    3.3549   -4.5302 H   0  0  0  0  0  0  0  0  0  0  0  0
   35.7837    3.5611   -5.8674 H   0  0  0  0  0  0  0  0  0  0  0  0
   38.7278    8.1326    1.6010 C   0  0  0  0  0  0  0  0  0  0  0  0
   39.6918    8.2743    1.8261 O   0  0  0  0  0  0  0  0  0  0  0  0
   39.9542    9.0216    2.3861 H   0  0  0  0  0  0  0  0  0  0  0  0
   39.0323    4.4410    2.2544 C   0  0  0  0  0  0  0  0  0  0  0  0
   39.9886    4.1760    2.1313 C   0  0  0  0  0  0  0  0  0  0  0  0
   40.7831    4.6472    2.5142 C   0  0  0  0  0  0  0  0  0  0  0  0
   41.6039    4.1556    2.2232 N   0  0  0  0  0  0  0  0  0  0  0  0
   41.3166    3.3805    1.6605 C   0  0  0  0  0  0  0  0  0  0  0  0
   40.3183    3.3931    1.6037 N   0  0  0  0  0  0  0  0  0  0  0  0
   39.7583    2.7480    1.1143 H   0  0  0  0  0  0  0  0  0  0  0  0
 95 96  1  0  0  0
 95 97  1  0  0  0
 95 98  1  0  0  0
 96 91  1  0  0  0
 96 99  1  0  0  0
 91 92  2  0  0  0
 91 93  1  0  0  0
 93 90  1  0  0  0
 93 94  1  0  0  0
 90103  1  0  0  0
 90 86  1  0  0  0
103104  1  0  0  0
104105  1  0  0  0
105106  2  0  0  0
105107  1  0  0  0
107108  1  0  0  0
107109  1  0  0  0
 86 87  2  0  0  0
 86 88  1  0  0  0
 88 85  1  0  0  0
 88 89  1  0  0  0
 85110  1  0  0  0
 85 81  1  0  0  0
110111  1  0  0  0
111112  1  0  0  0
112113  2  0  0  0
112114  1  0  0  0
114115  1  0  0  0
114116  1  0  0  0
 81 82  2  0  0  0
 81 83  1  0  0  0
 83 79  1  0  0  0
 83 84  1  0  0  0
 79 80  1  0  0  0
 79 75  1  0  0  0
 75 76  2  0  0  0
 75 77  1  0  0  0
 77 74  1  0  0  0
 77 78  1  0  0  0
 74117  1  0  0  0
 74 70  1  0  0  0
117118  1  0  0  0
118119  1  0  0  0
 70 71  2  0  0  0
 70 72  1  0  0  0
 72 69  1  0  0  0
 72 73  1  0  0  0
 69120  1  0  0  0
 69 65  1  0  0  0
120121  1  0  0  0
121125  1  0  0  0
121122  2  0  0  0
122123  1  0  0  0
123124  2  0  0  0
124125  1  0  0  0
125126  1  0  0  0
 65 66  2  0  0  0
 65 67  1  0  0  0
 67  1  1  0  0  0
 67 68  1  0  0  0
  1  2  1  0  0  0
  1 10  1  0  0  0
  2  8  2  0  0  0
  2  3  1  0  0  0
  3  4  2  0  0  0
  4  5  1  0  0  0
  5  6  1  0  0  0
  5  7  2  0  0  0
  6  9  1  0  0  0
  7  8  1  0  0  0
 10 11  2  0  0  0
 10 12  1  0  0  0
 12 14  1  0  0  0
 12 13  1  0  0  0
 14 58  1  0  0  0
 14 15  1  0  0  0
 58 59  1  0  0  0
 59 60  1  0  0  0
 60 61  1  0  0  0
 61 62  1  0  0  0
 62 63  1  0  0  0
 62 64  1  0  0  0
 15 16  2  0  0  0
 15 17  1  0  0  0
 17 19  1  0  0  0
 17 18  1  0  0  0
 19 51  1  0  0  0
 19 20  1  0  0  0
 51 52  1  0  0  0
 52 53  1  0  0  0
 53 54  2  0  0  0
 53 55  1  0  0  0
 55 56  1  0  0  0
 55 57  1  0  0  0
 20 21  2  0  0  0
 20 22  1  0  0  0
 22 24  1  0  0  0
 22 23  1  0  0  0
 24 44  1  0  0  0
 24 25  1  0  0  0
 44 45  1  0  0  0
 45 49  1  0  0  0
 45 46  2  0  0  0
 46 47  1  0  0  0
 47 48  2  0  0  0
 48 49  1  0  0  0
 49 50  1  0  0  0
 25 26  2  0  0  0
 25 27  1  0  0  0
 27 29  1  0  0  0
 27 28  1  0  0  0
 29 41  1  0  0  0
 29 30  1  0  0  0
 41 42  1  0  0  0
 42 43  1  0  0  0
 30 31  2  0  0  0
 30 32  1  0  0  0
 32 36  1  0  0  0
 32 33  1  0  0  0
 33 34  1  0  0  0
 34 35  1  0  0  0
 35 36  1  0  0  0
 36 37  1  0  0  0
 37 38  1  0  0  0
 37 39  2  0  0  0
 38 40  1  0  0  0
 99100  1  0  0  0
 99101  1  0  0  0
100102  1  0  0  0
M  END
> <minimizedAffinity>
-4.29670

$$$$



126129  0  0  0  0  0  0  0  0999 V2000
   32.1889    6.2417    1.2626 C   0  0  0  0  0  0  0  0  0  0  0  0
   31.8266    6.3037    0.3326 C   0  0  0  0  0  0  0  0  0  0  0  0
   31.4735    5.4860   -0.1220 C   0  0  0  0  0  0  0  0  0  0  0  0
   31.1111    5.5481   -1.0520 C   0  0  0  0  0  0  0  0  0  0  0  0
   31.1019    6.4278   -1.5274 C   0  0  0  0  0  0  0  0  0  0  0  0
   30.7396    6.4898   -2.4573 O   0  0  0  0  0  0  0  0  0  0  0  0
   31.4551    7.2455   -1.0728 C   0  0  0  0  0  0  0  0  0  0  0  0
   31.8174    7.1835   -0.1428 C   0  0  0  0  0  0  0  0  0  0  0  0
   30.4087    5.7236   -2.8833 H   0  0  0  0  0  0  0  0  0  0  0  0
   31.7894    6.7958    1.9928 C   0  0  0  0  0  0  0  0  0  0  0  0
   32.0233    7.7650    2.0699 O   0  0  0  0  0  0  0  0  0  0  0  0
   31.1560    6.3808    2.6459 N   0  0  0  0  0  0  0  0  0  0  0  0
   30.9258    5.4267    2.5700 H   0  0  0  0  0  0  0  0  0  0  0  0
   30.7565    6.9350    3.3762 C   0  0  0  0  0  0  0  0  0  0  0  0
   31.1333    6.8899    4.3013 C   0  0  0  0  0  0  0  0  0  0  0  0
   31.2750    6.0029    4.7408 O   0  0  0  0  0  0  0  0  0  0  0  0
   31.3685    7.7317    4.7871 N   0  0  0  0  0  0  0  0  0  0  0  0
   31.2291    8.6050    4.3544 H   0  0  0  0  0  0  0  0  0  0  0  0
   31.7454    7.6866    5.7122 C   0  0  0  0  0  0  0  0  0  0  0  0
   31.1912    7.9764    6.4925 C   0  0  0  0  0  0  0  0  0  0  0  0
   30.7162    8.8561    6.4693 O   0  0  0  0  0  0  0  0  0  0  0  0
   31.1120    7.3865    7.2962 N   0  0  0  0  0  0  0  0  0  0  0  0
   31.5796    6.5204    7.3191 H   0  0  0  0  0  0  0  0  0  0  0  0
   30.5578    7.6762    8.0765 C   0  0  0  0  0  0  0  0  0  0  0  0
   29.6399    7.3008    8.2047 C   0  0  0  0  0  0  0  0  0  0  0  0
   28.9142    7.8736    8.5859 O   0  0  0  0  0  0  0  0  0  0  0  0
   29.4476    6.3527    7.9516 N   0  0  0  0  0  0  0  0  0  0  0  0
   30.1620    5.7888    7.5763 H   0  0  0  0  0  0  0  0  0  0  0  0
   28.5296    5.9773    8.0799 C   0  0  0  0  0  0  0  0  0  0  0  0
   27.8377    6.0940    7.3674 C   0  0  0  0  0  0  0  0  0  0  0  0
   27.1245    6.7871    7.4718 O   0  0  0  0  0  0  0  0  0  0  0  0
   27.8590    5.5175    6.5505 N   0  0  0  0  0  0  0  0  0  0  0  0
   28.5278    4.8005    6.3544 C   0  0  0  0  0  0  0  0  0  0  0  0
   28.2973    4.3968    5.4690 C   0  0  0  0  0  0  0  0  0  0  0  0
   27.4861    4.8644    5.1180 C   0  0  0  0  0  0  0  0  0  0  0  0
   27.2152    5.5570    5.7863 C   0  0  0  0  0  0  0  0  0  0  0  0
   26.4371    6.1798    5.7049 C   0  0  0  0  0  0  0  0  0  0  0  0
   25.5162    5.8616    5.9301 O   0  0  0  0  0  0  0  0  0  0  0  0
   26.5798    7.1209    5.3982 O   0  0  0  0  0  0  0  0  0  0  0  0
   25.3825    4.9798    6.2175 H   0  0  0  0  0  0  0  0  0  0  0  0
   28.3036    5.4851    8.9206 C   0  0  0  0  0  0  0  0  0  0  0  0
   29.0049    4.9487    9.3899 S   0  0  0  0  0  0  0  0  0  0  0  0
   30.2663    4.8884    8.8849 H   0  0  0  0  0  0  0  0  0  0  0  0
   30.9215    8.3414    8.7286 C   0  0  0  0  0  0  0  0  0  0  0  0
   31.4184    8.0281    9.5378 C   0  0  0  0  0  0  0  0  0  0  0  0
   32.3715    7.7262    9.5621 C   0  0  0  0  0  0  0  0  0  0  0  0
   32.5916    7.4731   10.5041 N   0  0  0  0  0  0  0  0  0  0  0  0
   31.7745    7.6185   11.0622 C   0  0  0  0  0  0  0  0  0  0  0  0
   31.0495    7.9615   10.4649 N   0  0  0  0  0  0  0  0  0  0  0  0
   30.1333    8.1930   10.7411 H   0  0  0  0  0  0  0  0  0  0  0  0
   32.6764    7.3516    5.8571 C   0  0  0  0  0  0  0  0  0  0  0  0
   33.4470    7.9883    5.8281 C   0  0  0  0  0  0  0  0  0  0  0  0
   34.3530    7.6908    6.1292 C   0  0  0  0  0  0  0  0  0  0  0  0
   35.1679    8.1846    5.8256 O   0  0  0  0  0  0  0  0  0  0  0  0
   34.4441    6.8995    6.7338 N   0  0  0  0  0  0  0  0  0  0  0  0
   33.6418    6.4135    7.0327 H   0  0  0  0  0  0  0  0  0  0  0  0
   35.3361    6.6066    7.0302 H   0  0  0  0  0  0  0  0  0  0  0  0
   29.9801    7.5344    3.1813 C   0  0  0  0  0  0  0  0  0  0  0  0
   29.1097    7.1436    2.8813 C   0  0  0  0  0  0  0  0  0  0  0  0
   28.3608    7.7452    2.6037 C   0  0  0  0  0  0  0  0  0  0  0  0
   27.5370    7.3592    2.1886 C   0  0  0  0  0  0  0  0  0  0  0  0
   26.6390    7.7358    2.4161 N   0  0  0  0  0  0  0  0  0  0  0  0
   26.5633    8.5136    3.0716 H   0  0  0  0  0  0  0  0  0  0  0  0
   25.7987    7.3421    1.9927 H   0  0  0  0  0  0  0  0  0  0  0  0
   33.8916    5.9599    1.4087 C   0  0  0  0  0  0  0  0  0  0  0  0
   34.0707    6.9106    1.1554 O   0  0  0  0  0  0  0  0  0  0  0  0
   32.9508    5.6254    1.4623 N   0  0  0  0  0  0  0  0  0  0  0  0
   32.7745    4.6895    1.7117 H   0  0  0  0  0  0  0  0  0  0  0  0
   34.6535    5.3437    1.6084 C   0  0  0  0  0  0  0  0  0  0  0  0
   34.9947    5.1640    3.2970 C   0  0  0  0  0  0  0  0  0  0  0  0
   35.3580    6.0953    3.3227 O   0  0  0  0  0  0  0  0  0  0  0  0
   34.6425    4.7882    2.4399 N   0  0  0  0  0  0  0  0  0  0  0  0
   34.2849    3.8712    2.4145 H   0  0  0  0  0  0  0  0  0  0  0  0
   34.9838    4.6085    4.1284 C   0  0  0  0  0  0  0  0  0  0  0  0
   36.4541    3.9090    4.7190 C   0  0  0  0  0  0  0  0  0  0  0  0
   36.3662    3.1650    4.0566 O   0  0  0  0  0  0  0  0  0  0  0  0
   35.7629    4.6307    4.7549 N   0  0  0  0  0  0  0  0  0  0  0  0
   35.8493    5.3631    5.4070 H   0  0  0  0  0  0  0  0  0  0  0  0
   37.2332    3.9312    5.3455 C   0  0  0  0  0  0  0  0  0  0  0  0
   38.1652    3.8856    4.9862 C   0  0  0  0  0  0  0  0  0  0  0  0
   37.4097    3.2767    6.9394 C   0  0  0  0  0  0  0  0  0  0  0  0
   37.8922    2.4865    6.5614 O   0  0  0  0  0  0  0  0  0  0  0  0
   37.0802    3.9990    6.3314 N   0  0  0  0  0  0  0  0  0  0  0  0
   36.6052    4.7770    6.7035 H   0  0  0  0  0  0  0  0  0  0  0  0
   37.2568    3.3445    7.9253 C   0  0  0  0  0  0  0  0  0  0  0  0
   35.7069    3.1072    8.6612 C   0  0  0  0  0  0  0  0  0  0  0  0
   35.8765    2.1225    8.7010 O   0  0  0  0  0  0  0  0  0  0  0  0
   36.3970    3.7182    8.2734 N   0  0  0  0  0  0  0  0  0  0  0  0
   36.2300    4.6876    8.2342 H   0  0  0  0  0  0  0  0  0  0  0  0
   34.8471    3.4810    9.0093 C   0  0  0  0  0  0  0  0  0  0  0  0
   34.8029    4.3585   10.5019 C   0  0  0  0  0  0  0  0  0  0  0  0
   35.1022    5.1848   10.0250 O   0  0  0  0  0  0  0  0  0  0  0  0
   34.6753    3.5065    9.9941 N   0  0  0  0  0  0  0  0  0  0  0  0
   34.3806    2.6929   10.4636 H   0  0  0  0  0  0  0  0  0  0  0  0
   33.7720    4.7593   11.8349 N   0  0  0  0  0  0  0  0  0  0  0  0
   34.6311    4.3840   11.4868 C   0  0  0  0  0  0  0  0  0  0  0  0
   33.5967    4.7853   12.8393 H   0  0  0  0  0  0  0  0  0  0  0  0
   33.0710    5.1160   11.1854 H   0  0  0  0  0  0  0  0  0  0  0  0
   35.3183    4.0342   12.1235 C   0  0  0  0  0  0  0  0  0  0  0  0
   36.2407    4.4204   12.1253 O   0  0  0  0  0  0  0  0  0  0  0  0
   35.0831    3.2983   12.7583 C   0  0  0  0  0  0  0  0  0  0  0  0
   36.4688    5.1344   11.5095 H   0  0  0  0  0  0  0  0  0  0  0  0
   34.1591    3.8291    8.3725 C   0  0  0  0  0  0  0  0  0  0  0  0
   33.3182    3.3120    8.2131 C   0  0  0  0  0  0  0  0  0  0  0  0
   32.5080    3.7738    7.8522 C   0  0  0  0  0  0  0  0  0  0  0  0
   32.4469    4.7715    7.8805 O   0  0  0  0  0  0  0  0  0  0  0  0
   31.7588    3.2378    7.4629 N   0  0  0  0  0  0  0  0  0  0  0  0
   31.8190    2.2556    7.4350 H   0  0  0  0  0  0  0  0  0  0  0  0
   30.9612    3.6925    7.1076 H   0  0  0  0  0  0  0  0  0  0  0  0
   37.9635    3.0385    8.5632 C   0  0  0  0  0  0  0  0  0  0  0  0
   38.5371    3.7094    9.0332 C   0  0  0  0  0  0  0  0  0  0  0  0
   39.0279    3.4519    9.8655 C   0  0  0  0  0  0  0  0  0  0  0  0
   38.6017    3.5883   10.7598 O   0  0  0  0  0  0  0  0  0  0  0  0
   39.9450    3.0579    9.8036 N   0  0  0  0  0  0  0  0  0  0  0  0
   40.3646    2.9235    8.9232 H   0  0  0  0  0  0  0  0  0  0  0  0
   40.4282    2.8043   10.6231 H   0  0  0  0  0  0  0  0  0  0  0  0
   34.1937    4.0308    4.3333 C   0  0  0  0  0  0  0  0  0  0  0  0
   33.4775    4.3625    4.9473 O   0  0  0  0  0  0  0  0  0  0  0  0
   32.7111    3.8021    5.1460 H   0  0  0  0  0  0  0  0  0  0  0  0
   35.4263    5.2830    0.9767 C   0  0  0  0  0  0  0  0  0  0  0  0
   35.6205    4.4227    0.5054 C   0  0  0  0  0  0  0  0  0  0  0  0
   35.2245    4.1262   -0.3637 C   0  0  0  0  0  0  0  0  0  0  0  0
   35.6040    3.2280   -0.5859 N   0  0  0  0  0  0  0  0  0  0  0  0
   36.2347    2.9695    0.1460 C   0  0  0  0  0  0  0  0  0  0  0  0
   36.2448    3.7079    0.8203 N   0  0  0  0  0  0  0  0  0  0  0  0
   36.7762    3.7275    1.6489 H   0  0  0  0  0  0  0  0  0  0  0  0
 95 96  1  0  0  0
 95 97  1  0  0  0
 95 98  1  0  0  0
 96 91  1  0  0  0
 96 99  1  0  0  0
 91 92  2  0  0  0
 91 93  1  0  0  0
 93 90  1  0  0  0
 93 94  1  0  0  0
 90103  1  0  0  0
 90 86  1  0  0  0
103104  1  0  0  0
104105  1  0  0  0
105106  2  0  0  0
105107  1  0  0  0
107108  1  0  0  0
107109  1  0  0  0
 86 87  2  0  0  0
 86 88  1  0  0  0
 88 85  1  0  0  0
 88 89  1  0  0  0
 85110  1  0  0  0
 85 81  1  0  0  0
110111  1  0  0  0
111112  1  0  0  0
112113  2  0  0  0
112114  1  0  0  0
114115  1  0  0  0
114116  1  0  0  0
 81 82  2  0  0  0
 81 83  1  0  0  0
 83 79  1  0  0  0
 83 84  1  0  0  0
 79 80  1  0  0  0
 79 75  1  0  0  0
 75 76  2  0  0  0
 75 77  1  0  0  0
 77 74  1  0  0  0
 77 78  1  0  0  0
 74117  1  0  0  0
 74 70  1  0  0  0
117118  1  0  0  0
118119  1  0  0  0
 70 71  2  0  0  0
 70 72  1  0  0  0
 72 69  1  0  0  0
 72 73  1  0  0  0
 69120  1  0  0  0
 69 65  1  0  0  0
120121  1  0  0  0
121125  1  0  0  0
121122  2  0  0  0
122123  1  0  0  0
123124  2  0  0  0
124125  1  0  0  0
125126  1  0  0  0
 65 66  2  0  0  0
 65 67  1  0  0  0
 67  1  1  0  0  0
 67 68  1  0  0  0
  1  2  1  0  0  0
  1 10  1  0  0  0
  2  8  2  0  0  0
  2  3  1  0  0  0
  3  4  2  0  0  0
  4  5  1  0  0  0
  5  6  1  0  0  0
  5  7  2  0  0  0
  6  9  1  0  0  0
  7  8  1  0  0  0
 10 11  2  0  0  0
 10 12  1  0  0  0
 12 14  1  0  0  0
 12 13  1  0  0  0
 14 58  1  0  0  0
 14 15  1  0  0  0
 58 59  1  0  0  0
 59 60  1  0  0  0
 60 61  1  0  0  0
 61 62  1  0  0  0
 62 63  1  0  0  0
 62 64  1  0  0  0
 15 16  2  0  0  0
 15 17  1  0  0  0
 17 19  1  0  0  0
 17 18  1  0  0  0
 19 51  1  0  0  0
 19 20  1  0  0  0
 51 52  1  0  0  0
 52 53  1  0  0  0
 53 54  2  0  0  0
 53 55  1  0  0  0
 55 56  1  0  0  0
 55 57  1  0  0  0
 20 21  2  0  0  0
 20 22  1  0  0  0
 22 24  1  0  0  0
 22 23  1  0  0  0
 24 44  1  0  0  0
 24 25  1  0  0  0
 44 45  1  0  0  0
 45 49  1  0  0  0
 45 46  2  0  0  0
 46 47  1  0  0  0
 47 48  2  0  0  0
 48 49  1  0  0  0
 49 50  1  0  0  0
 25 26  2  0  0  0
 25 27  1  0  0  0
 27 29  1  0  0  0
 27 28  1  0  0  0
 29 41  1  0  0  0
 29 30  1  0  0  0
 41 42  1  0  0  0
 42 43  1  0  0  0
 30 31  2  0  0  0
 30 32  1  0  0  0
 32 36  1  0  0  0
 32 33  1  0  0  0
 33 34  1  0  0  0
 34 35  1  0  0  0
 35 36  1  0  0  0
 36 37  1  0  0  0
 37 38  1  0  0  0
 37 39  2  0  0  0
 38 40  1  0  0  0
 99100  1  0  0  0
 99101  1  0  0  0
100102  1  0  0  0
M  END
> <minimizedAffinity>
-4.24619

$$$$



126129  0  0  0  0  0  0  0  0999 V2000
   24.8811    9.3117    4.8276 C   0  0  0  0  0  0  0  0  0  0  0  0
   24.3451   10.0051    5.3091 C   0  0  0  0  0  0  0  0  0  0  0  0
   24.7358   10.9096    5.4799 C   0  0  0  0  0  0  0  0  0  0  0  0
   24.1997   11.6030    5.9615 C   0  0  0  0  0  0  0  0  0  0  0  0
   23.2729   11.3919    6.2721 C   0  0  0  0  0  0  0  0  0  0  0  0
   22.7369   12.0852    6.7536 O   0  0  0  0  0  0  0  0  0  0  0  0
   22.8822   10.4874    6.1012 C   0  0  0  0  0  0  0  0  0  0  0  0
   23.4182    9.7940    5.6197 C   0  0  0  0  0  0  0  0  0  0  0  0
   23.1030   12.9328    6.9137 H   0  0  0  0  0  0  0  0  0  0  0  0
   25.3565    8.5994    5.3441 C   0  0  0  0  0  0  0  0  0  0  0  0
   24.8348    7.9533    5.9012 O   0  0  0  0  0  0  0  0  0  0  0  0
   26.3534    8.5333    5.3034 N   0  0  0  0  0  0  0  0  0  0  0  0
   26.8670    9.1694    4.7548 H   0  0  0  0  0  0  0  0  0  0  0  0
   26.8288    7.8210    5.8199 C   0  0  0  0  0  0  0  0  0  0  0  0
   27.0795    7.9789    6.7750 C   0  0  0  0  0  0  0  0  0  0  0  0
   26.8884    7.2800    7.4641 O   0  0  0  0  0  0  0  0  0  0  0  0
   27.5212    8.8357    7.0409 N   0  0  0  0  0  0  0  0  0  0  0  0
   27.7093    9.5238    6.3624 H   0  0  0  0  0  0  0  0  0  0  0  0
   27.7719    8.9936    7.9960 C   0  0  0  0  0  0  0  0  0  0  0  0
   28.7352    9.0084    8.2642 C   0  0  0  0  0  0  0  0  0  0  0  0
   29.4240    9.3679    7.6347 O   0  0  0  0  0  0  0  0  0  0  0  0
   29.0096    8.6637    9.1619 N   0  0  0  0  0  0  0  0  0  0  0  0
   28.3315    8.3097    9.7817 H   0  0  0  0  0  0  0  0  0  0  0  0
   29.9729    8.6785    9.4301 C   0  0  0  0  0  0  0  0  0  0  0  0
   30.5107    7.8358    9.4090 C   0  0  0  0  0  0  0  0  0  0  0  0
   31.4861    7.8705    9.1912 O   0  0  0  0  0  0  0  0  0  0  0  0
   30.0733    6.9583    9.6057 N   0  0  0  0  0  0  0  0  0  0  0  0
   29.1130    6.9242    9.8201 H   0  0  0  0  0  0  0  0  0  0  0  0
   30.6112    6.1156    9.5846 C   0  0  0  0  0  0  0  0  0  0  0  0
   30.6084    5.5410    8.7662 C   0  0  0  0  0  0  0  0  0  0  0  0
   31.4593    5.3776    8.2670 O   0  0  0  0  0  0  0  0  0  0  0  0
   29.7545    5.1298    8.4468 N   0  0  0  0  0  0  0  0  0  0  0  0
   28.8565    5.2328    8.8746 C   0  0  0  0  0  0  0  0  0  0  0  0
   28.1959    4.7101    8.3358 C   0  0  0  0  0  0  0  0  0  0  0  0
   28.6856    4.2840    7.5751 C   0  0  0  0  0  0  0  0  0  0  0  0
   29.6489    4.5434    7.6438 C   0  0  0  0  0  0  0  0  0  0  0  0
   30.3784    4.2653    7.0190 C   0  0  0  0  0  0  0  0  0  0  0  0
   30.6639    4.8758    6.2802 O   0  0  0  0  0  0  0  0  0  0  0  0
   30.8225    3.3765    7.1329 O   0  0  0  0  0  0  0  0  0  0  0  0
   30.2478    5.7085    6.1735 H   0  0  0  0  0  0  0  0  0  0  0  0
   31.1519    5.8474   10.3820 C   0  0  0  0  0  0  0  0  0  0  0  0
   30.6963    5.4962   11.1999 S   0  0  0  0  0  0  0  0  0  0  0  0
   29.3413    5.3833   11.2281 H   0  0  0  0  0  0  0  0  0  0  0  0
   30.3982    9.5360    9.7194 C   0  0  0  0  0  0  0  0  0  0  0  0
   30.0825    9.9956   10.5496 C   0  0  0  0  0  0  0  0  0  0  0  0
   30.1653    9.6459   11.4828 C   0  0  0  0  0  0  0  0  0  0  0  0
   29.7626   10.3197   12.1022 N   0  0  0  0  0  0  0  0  0  0  0  0
   29.4309   11.0860   11.5519 C   0  0  0  0  0  0  0  0  0  0  0  0
   29.6286   10.8856   10.5922 N   0  0  0  0  0  0  0  0  0  0  0  0
   29.4141   11.4633    9.8244 H   0  0  0  0  0  0  0  0  0  0  0  0
   27.0594    9.1366    8.6829 C   0  0  0  0  0  0  0  0  0  0  0  0
   26.5842   10.0150    8.7350 C   0  0  0  0  0  0  0  0  0  0  0  0
   25.7510   10.1011    9.2812 C   0  0  0  0  0  0  0  0  0  0  0  0
   24.9023    9.6740    8.9692 O   0  0  0  0  0  0  0  0  0  0  0  0
   25.7665   10.6143   10.1393 N   0  0  0  0  0  0  0  0  0  0  0  0
   26.6021   11.0347   10.4464 H   0  0  0  0  0  0  0  0  0  0  0  0
   24.9462   10.6990   10.6770 H   0  0  0  0  0  0  0  0  0  0  0  0
   27.0535    6.9509    5.3812 C   0  0  0  0  0  0  0  0  0  0  0  0
   27.6457    6.9354    4.5755 C   0  0  0  0  0  0  0  0  0  0  0  0
   28.3225    6.2074    4.4664 C   0  0  0  0  0  0  0  0  0  0  0  0
   28.2369    5.5537    3.7146 C   0  0  0  0  0  0  0  0  0  0  0  0
   28.2168    5.8788    2.7691 N   0  0  0  0  0  0  0  0  0  0  0  0
   28.2836    6.8773    2.5717 H   0  0  0  0  0  0  0  0  0  0  0  0
   28.1295    5.2120    2.0023 H   0  0  0  0  0  0  0  0  0  0  0  0
   24.4171    8.6769    3.2843 C   0  0  0  0  0  0  0  0  0  0  0  0
   23.8315    8.0044    3.7370 O   0  0  0  0  0  0  0  0  0  0  0  0
   24.9419    9.3305    3.8296 N   0  0  0  0  0  0  0  0  0  0  0  0
   25.5184    9.9926    3.3840 H   0  0  0  0  0  0  0  0  0  0  0  0
   24.4778    8.6958    2.2863 C   0  0  0  0  0  0  0  0  0  0  0  0
   26.0343    8.4765    1.5589 C   0  0  0  0  0  0  0  0  0  0  0  0
   25.9711    7.4917    1.7205 O   0  0  0  0  0  0  0  0  0  0  0  0
   25.2877    9.0786    1.8418 N   0  0  0  0  0  0  0  0  0  0  0  0
   25.3498   10.0482    1.6827 H   0  0  0  0  0  0  0  0  0  0  0  0
   26.8442    8.8593    1.1144 C   0  0  0  0  0  0  0  0  0  0  0  0
   28.1500    9.6352    1.9467 C   0  0  0  0  0  0  0  0  0  0  0  0
   27.6758   10.5125    1.8728 O   0  0  0  0  0  0  0  0  0  0  0  0
   27.7342    8.8086    1.5675 N   0  0  0  0  0  0  0  0  0  0  0  0
   28.2010    7.9449    1.6402 H   0  0  0  0  0  0  0  0  0  0  0  0
   29.0401    9.5845    2.3998 C   0  0  0  0  0  0  0  0  0  0  0  0
   29.3669   10.3547    2.9473 C   0  0  0  0  0  0  0  0  0  0  0  0
   30.4900    8.8158    1.8462 C   0  0  0  0  0  0  0  0  0  0  0  0
   30.8137    9.6889    1.4816 O   0  0  0  0  0  0  0  0  0  0  0  0
   29.6032    8.7636    2.3052 N   0  0  0  0  0  0  0  0  0  0  0  0
   29.2845    7.9040    2.6641 H   0  0  0  0  0  0  0  0  0  0  0  0
   31.0533    7.9948    1.7516 C   0  0  0  0  0  0  0  0  0  0  0  0
   30.9320    7.0976    0.2751 C   0  0  0  0  0  0  0  0  0  0  0  0
   30.0676    6.7026    0.5861 O   0  0  0  0  0  0  0  0  0  0  0  0
   31.4249    7.7437    0.8579 N   0  0  0  0  0  0  0  0  0  0  0  0
   32.2759    8.1325    0.5517 H   0  0  0  0  0  0  0  0  0  0  0  0
   31.3036    6.8464   -0.6187 C   0  0  0  0  0  0  0  0  0  0  0  0
   31.3328    8.0603   -1.8539 C   0  0  0  0  0  0  0  0  0  0  0  0
   30.3543    7.9249   -2.0099 O   0  0  0  0  0  0  0  0  0  0  0  0
   31.8074    7.5210   -1.1582 N   0  0  0  0  0  0  0  0  0  0  0  0
   32.7707    7.6542   -1.0045 H   0  0  0  0  0  0  0  0  0  0  0  0
   32.0538    8.5476   -3.3514 N   0  0  0  0  0  0  0  0  0  0  0  0
   31.8366    8.7349   -2.3934 C   0  0  0  0  0  0  0  0  0  0  0  0
   32.5677    9.2356   -3.9018 H   0  0  0  0  0  0  0  0  0  0  0  0
   31.7614    7.6685   -3.7782 H   0  0  0  0  0  0  0  0  0  0  0  0
   32.1232    9.5967   -1.9750 C   0  0  0  0  0  0  0  0  0  0  0  0
   31.4623   10.1511   -1.4693 O   0  0  0  0  0  0  0  0  0  0  0  0
   33.0708    9.9041   -2.0623 C   0  0  0  0  0  0  0  0  0  0  0  0
   30.5431    9.8529   -1.3847 H   0  0  0  0  0  0  0  0  0  0  0  0
   31.1715    5.9206   -0.9729 C   0  0  0  0  0  0  0  0  0  0  0  0
   31.9408    5.2825   -1.0035 C   0  0  0  0  0  0  0  0  0  0  0  0
   31.8565    4.4214   -1.5052 C   0  0  0  0  0  0  0  0  0  0  0  0
   31.3578    3.6544   -1.1017 O   0  0  0  0  0  0  0  0  0  0  0  0
   32.2711    4.3276   -2.4103 N   0  0  0  0  0  0  0  0  0  0  0  0
   32.7621    5.0827   -2.8076 H   0  0  0  0  0  0  0  0  0  0  0  0
   32.1882    3.4799   -2.9042 H   0  0  0  0  0  0  0  0  0  0  0  0
   31.2448    7.4251    2.5508 C   0  0  0  0  0  0  0  0  0  0  0  0
   32.1491    7.4495    2.9770 C   0  0  0  0  0  0  0  0  0  0  0  0
   32.3668    6.8216    3.7242 C   0  0  0  0  0  0  0  0  0  0  0  0
   32.0269    5.8814    3.7022 O   0  0  0  0  0  0  0  0  0  0  0  0
   32.9244    7.1338    4.4934 N   0  0  0  0  0  0  0  0  0  0  0  0
   33.2590    8.0595    4.5150 H   0  0  0  0  0  0  0  0  0  0  0  0
   33.1386    6.5156    5.2290 H   0  0  0  0  0  0  0  0  0  0  0  0
   26.7640    9.2927    0.2168 C   0  0  0  0  0  0  0  0  0  0  0  0
   26.9470    8.7639   -0.6119 O   0  0  0  0  0  0  0  0  0  0  0  0
   26.8692    9.1844   -1.4826 H   0  0  0  0  0  0  0  0  0  0  0  0
   23.7286    8.3318    1.7328 C   0  0  0  0  0  0  0  0  0  0  0  0
   23.0597    8.9538    1.3258 C   0  0  0  0  0  0  0  0  0  0  0  0
   23.0420    9.2560    0.3727 C   0  0  0  0  0  0  0  0  0  0  0  0
   22.2624    9.8718    0.2581 N   0  0  0  0  0  0  0  0  0  0  0  0
   21.7984    9.9503    1.1406 C   0  0  0  0  0  0  0  0  0  0  0  0
   22.2912    9.3829    1.8003 N   0  0  0  0  0  0  0  0  0  0  0  0
   22.0603    9.2672    2.7503 H   0  0  0  0  0  0  0  0  0  0  0  0
 95 96  1  0  0  0
 95 97  1  0  0  0
 95 98  1  0  0  0
 96 91  1  0  0  0
 96 99  1  0  0  0
 91 92  2  0  0  0
 91 93  1  0  0  0
 93 90  1  0  0  0
 93 94  1  0  0  0
 90103  1  0  0  0
 90 86  1  0  0  0
103104  1  0  0  0
104105  1  0  0  0
105106  2  0  0  0
105107  1  0  0  0
107108  1  0  0  0
107109  1  0  0  0
 86 87  2  0  0  0
 86 88  1  0  0  0
 88 85  1  0  0  0
 88 89  1  0  0  0
 85110  1  0  0  0
 85 81  1  0  0  0
110111  1  0  0  0
111112  1  0  0  0
112113  2  0  0  0
112114  1  0  0  0
114115  1  0  0  0
114116  1  0  0  0
 81 82  2  0  0  0
 81 83  1  0  0  0
 83 79  1  0  0  0
 83 84  1  0  0  0
 79 80  1  0  0  0
 79 75  1  0  0  0
 75 76  2  0  0  0
 75 77  1  0  0  0
 77 74  1  0  0  0
 77 78  1  0  0  0
 74117  1  0  0  0
 74 70  1  0  0  0
117118  1  0  0  0
118119  1  0  0  0
 70 71  2  0  0  0
 70 72  1  0  0  0
 72 69  1  0  0  0
 72 73  1  0  0  0
 69120  1  0  0  0
 69 65  1  0  0  0
120121  1  0  0  0
121125  1  0  0  0
121122  2  0  0  0
122123  1  0  0  0
123124  2  0  0  0
124125  1  0  0  0
125126  1  0  0  0
 65 66  2  0  0  0
 65 67  1  0  0  0
 67  1  1  0  0  0
 67 68  1  0  0  0
  1  2  1  0  0  0
  1 10  1  0  0  0
  2  8  2  0  0  0
  2  3  1  0  0  0
  3  4  2  0  0  0
  4  5  1  0  0  0
  5  6  1  0  0  0
  5  7  2  0  0  0
  6  9  1  0  0  0
  7  8  1  0  0  0
 10 11  2  0  0  0
 10 12  1  0  0  0
 12 14  1  0  0  0
 12 13  1  0  0  0
 14 58  1  0  0  0
 14 15  1  0  0  0
 58 59  1  0  0  0
 59 60  1  0  0  0
 60 61  1  0  0  0
 61 62  1  0  0  0
 62 63  1  0  0  0
 62 64  1  0  0  0
 15 16  2  0  0  0
 15 17  1  0  0  0
 17 19  1  0  0  0
 17 18  1  0  0  0
 19 51  1  0  0  0
 19 20  1  0  0  0
 51 52  1  0  0  0
 52 53  1  0  0  0
 53 54  2  0  0  0
 53 55  1  0  0  0
 55 56  1  0  0  0
 55 57  1  0  0  0
 20 21  2  0  0  0
 20 22  1  0  0  0
 22 24  1  0  0  0
 22 23  1  0  0  0
 24 44  1  0  0  0
 24 25  1  0  0  0
 44 45  1  0  0  0
 45 49  1  0  0  0
 45 46  2  0  0  0
 46 47  1  0  0  0
 47 48  2  0  0  0
 48 49  1  0  0  0
 49 50  1  0  0  0
 25 26  2  0  0  0
 25 27  1  0  0  0
 27 29  1  0  0  0
 27 28  1  0  0  0
 29 41  1  0  0  0
 29 30  1  0  0  0
 41 42  1  0  0  0
 42 43  1  0  0  0
 30 31  2  0  0  0
 30 32  1  0  0  0
 32 36  1  0  0  0
 32 33  1  0  0  0
 33 34  1  0  0  0
 34 35  1  0  0  0
 35 36  1  0  0  0
 36 37  1  0  0  0
 37 38  1  0  0  0
 37 39  2  0  0  0
 38 40  1  0  0  0
 99100  1  0  0  0
 99101  1  0  0  0
100102  1  0  0  0
M  END
> <minimizedAffinity>
-4.20977

$$$$



126129  0  0  0  0  0  0  0  0999 V2000
   41.9236    3.5828    0.4457 C   0  0  0  0  0  0  0  0  0  0  0  0
   41.8671    3.2341    1.3812 C   0  0  0  0  0  0  0  0  0  0  0  0
   42.0677    2.2727    1.5694 C   0  0  0  0  0  0  0  0  0  0  0  0
   42.0111    1.9240    2.5050 C   0  0  0  0  0  0  0  0  0  0  0  0
   41.7540    2.5366    3.2522 C   0  0  0  0  0  0  0  0  0  0  0  0
   41.6974    2.1879    4.1877 O   0  0  0  0  0  0  0  0  0  0  0  0
   41.5533    3.4981    3.0640 C   0  0  0  0  0  0  0  0  0  0  0  0
   41.6099    3.8468    2.1286 C   0  0  0  0  0  0  0  0  0  0  0  0
   41.8854    1.2871    4.3641 H   0  0  0  0  0  0  0  0  0  0  0  0
   41.0888    3.8230   -0.0497 C   0  0  0  0  0  0  0  0  0  0  0  0
   40.4756    4.5241    0.3143 O   0  0  0  0  0  0  0  0  0  0  0  0
   40.8672    3.3621   -0.9090 N   0  0  0  0  0  0  0  0  0  0  0  0
   41.4709    2.6718   -1.2673 H   0  0  0  0  0  0  0  0  0  0  0  0
   40.0323    3.6022   -1.4044 C   0  0  0  0  0  0  0  0  0  0  0  0
   40.0676    4.2661   -2.1514 C   0  0  0  0  0  0  0  0  0  0  0  0
   40.7097    4.1352   -2.9067 O   0  0  0  0  0  0  0  0  0  0  0  0
   39.4608    5.0609   -2.1430 N   0  0  0  0  0  0  0  0  0  0  0  0
   38.8287    5.1898   -1.3994 H   0  0  0  0  0  0  0  0  0  0  0  0
   39.4961    5.7248   -2.8900 C   0  0  0  0  0  0  0  0  0  0  0  0
   38.8459    5.6608   -3.6470 C   0  0  0  0  0  0  0  0  0  0  0  0
   39.1635    5.7669   -4.5892 O   0  0  0  0  0  0  0  0  0  0  0  0
   37.8780    5.4905   -3.4617 N   0  0  0  0  0  0  0  0  0  0  0  0
   37.5653    5.3860   -2.5341 H   0  0  0  0  0  0  0  0  0  0  0  0
   37.2278    5.4264   -4.2187 C   0  0  0  0  0  0  0  0  0  0  0  0
   36.8622    4.5360   -4.4898 C   0  0  0  0  0  0  0  0  0  0  0  0
   36.2949    4.0136   -3.8532 O   0  0  0  0  0  0  0  0  0  0  0  0
   37.0640    4.1680   -5.3975 N   0  0  0  0  0  0  0  0  0  0  0  0
   37.6225    4.6823   -6.0241 H   0  0  0  0  0  0  0  0  0  0  0  0
   36.6984    3.2775   -5.6685 C   0  0  0  0  0  0  0  0  0  0  0  0
   35.9323    3.2255   -6.3091 C   0  0  0  0  0  0  0  0  0  0  0  0
   35.0655    2.8192   -6.0201 O   0  0  0  0  0  0  0  0  0  0  0  0
   36.0330    3.5800   -7.2388 N   0  0  0  0  0  0  0  0  0  0  0  0
   36.8549    4.0024   -7.6210 C   0  0  0  0  0  0  0  0  0  0  0  0
   36.6592    4.2577   -8.5679 C   0  0  0  0  0  0  0  0  0  0  0  0
   35.7165    3.9930   -8.7709 C   0  0  0  0  0  0  0  0  0  0  0  0
   35.3295    3.5742   -7.9495 C   0  0  0  0  0  0  0  0  0  0  0  0
   34.4018    3.2130   -7.8552 C   0  0  0  0  0  0  0  0  0  0  0  0
   33.6592    3.8134   -7.5585 O   0  0  0  0  0  0  0  0  0  0  0  0
   34.2167    2.2513   -8.0577 O   0  0  0  0  0  0  0  0  0  0  0  0
   33.8326    4.7144   -7.3689 H   0  0  0  0  0  0  0  0  0  0  0  0
   37.0990    2.4390   -5.2990 C   0  0  0  0  0  0  0  0  0  0  0  0
   38.0054    2.1429   -5.6002 S   0  0  0  0  0  0  0  0  0  0  0  0
   38.6934    2.8805   -6.5124 H   0  0  0  0  0  0  0  0  0  0  0  0
   36.9431    6.2528   -4.7047 C   0  0  0  0  0  0  0  0  0  0  0  0
   36.1099    6.7325   -4.4297 C   0  0  0  0  0  0  0  0  0  0  0  0
   35.3995    7.0761   -5.0440 C   0  0  0  0  0  0  0  0  0  0  0  0
   34.6914    7.5088   -4.4862 N   0  0  0  0  0  0  0  0  0  0  0  0
   34.9640    7.4327   -3.5270 C   0  0  0  0  0  0  0  0  0  0  0  0
   35.8408    6.9529   -3.4922 N   0  0  0  0  0  0  0  0  0  0  0  0
   36.3495    6.7357   -2.6778 H   0  0  0  0  0  0  0  0  0  0  0  0
   40.1817    6.4528   -2.8799 C   0  0  0  0  0  0  0  0  0  0  0  0
   40.0753    7.2312   -2.2613 C   0  0  0  0  0  0  0  0  0  0  0  0
   40.8829    7.6772   -1.8755 C   0  0  0  0  0  0  0  0  0  0  0  0
   41.0529    7.6388   -0.8907 O   0  0  0  0  0  0  0  0  0  0  0  0
   41.5206    8.1617   -2.4744 N   0  0  0  0  0  0  0  0  0  0  0  0
   41.3533    8.1996   -3.4438 H   0  0  0  0  0  0  0  0  0  0  0  0
   42.3157    8.6008   -2.0945 H   0  0  0  0  0  0  0  0  0  0  0  0
   39.1622    3.1785   -1.1528 C   0  0  0  0  0  0  0  0  0  0  0  0
   38.9662    2.2373   -1.4284 C   0  0  0  0  0  0  0  0  0  0  0  0
   38.0220    1.9087   -1.4489 C   0  0  0  0  0  0  0  0  0  0  0  0
   37.8160    1.0021   -1.8171 C   0  0  0  0  0  0  0  0  0  0  0  0
   36.8739    0.7580   -2.0469 N   0  0  0  0  0  0  0  0  0  0  0  0
   36.1230    1.4338   -1.9057 H   0  0  0  0  0  0  0  0  0  0  0  0
   36.6638   -0.1668   -2.4225 H   0  0  0  0  0  0  0  0  0  0  0  0
   43.2862    4.5727    0.0412 C   0  0  0  0  0  0  0  0  0  0  0  0
   42.8661    5.3455    0.5170 O   0  0  0  0  0  0  0  0  0  0  0  0
   42.8149    3.6914    0.0055 N   0  0  0  0  0  0  0  0  0  0  0  0
   43.2285    2.9306   -0.4629 H   0  0  0  0  0  0  0  0  0  0  0  0
   44.1775    4.6812   -0.3989 C   0  0  0  0  0  0  0  0  0  0  0  0
   44.2081    5.3667   -1.9893 C   0  0  0  0  0  0  0  0  0  0  0  0
   44.0671    6.2768   -1.5997 O   0  0  0  0  0  0  0  0  0  0  0  0
   44.2633    4.5689   -1.3889 N   0  0  0  0  0  0  0  0  0  0  0  0
   44.4022    3.6728   -1.7724 H   0  0  0  0  0  0  0  0  0  0  0  0
   44.2939    5.2543   -2.9792 C   0  0  0  0  0  0  0  0  0  0  0  0
   45.7142    4.6942   -3.7972 C   0  0  0  0  0  0  0  0  0  0  0  0
   46.0436    5.6356   -3.8699 O   0  0  0  0  0  0  0  0  0  0  0  0
   44.8394    4.5036   -3.3518 N   0  0  0  0  0  0  0  0  0  0  0  0
   44.5151    3.5768   -3.2802 H   0  0  0  0  0  0  0  0  0  0  0  0
   46.2596    3.9434   -4.1698 C   0  0  0  0  0  0  0  0  0  0  0  0
   47.2505    4.0424   -4.2607 C   0  0  0  0  0  0  0  0  0  0  0  0
   45.6269    2.9243   -5.4191 C   0  0  0  0  0  0  0  0  0  0  0  0
   45.8850    3.6047   -6.1049 O   0  0  0  0  0  0  0  0  0  0  0  0
   45.8142    3.0936   -4.4515 N   0  0  0  0  0  0  0  0  0  0  0  0
   45.5600    2.4237   -3.7763 H   0  0  0  0  0  0  0  0  0  0  0  0
   45.1814    2.0744   -5.7009 C   0  0  0  0  0  0  0  0  0  0  0  0
   43.4554    1.9305   -5.6824 C   0  0  0  0  0  0  0  0  0  0  0  0
   43.4830    1.7258   -4.7040 O   0  0  0  0  0  0  0  0  0  0  0  0
   44.3046    2.1048   -6.1809 N   0  0  0  0  0  0  0  0  0  0  0  0
   44.2776    2.3064   -7.1441 H   0  0  0  0  0  0  0  0  0  0  0  0
   42.5787    1.9609   -6.1624 C   0  0  0  0  0  0  0  0  0  0  0  0
   41.9997    0.5452   -6.9751 C   0  0  0  0  0  0  0  0  0  0  0  0
   42.5973    0.7462   -7.7512 O   0  0  0  0  0  0  0  0  0  0  0  0
   41.9903    1.1526   -6.1807 N   0  0  0  0  0  0  0  0  0  0  0  0
   41.4019    0.9547   -5.4166 H   0  0  0  0  0  0  0  0  0  0  0  0
   41.4443   -0.9227   -6.2422 N   0  0  0  0  0  0  0  0  0  0  0  0
   41.4113   -0.2633   -6.9933 C   0  0  0  0  0  0  0  0  0  0  0  0
   40.8442   -1.7472   -6.2608 H   0  0  0  0  0  0  0  0  0  0  0  0
   42.0781   -0.7707   -5.4576 H   0  0  0  0  0  0  0  0  0  0  0  0
   40.7899   -0.4122   -7.7625 C   0  0  0  0  0  0  0  0  0  0  0  0
   39.9975    0.1847   -7.8880 O   0  0  0  0  0  0  0  0  0  0  0  0
   40.9610   -1.1581   -8.4062 C   0  0  0  0  0  0  0  0  0  0  0  0
   39.8315    0.9082   -7.2635 H   0  0  0  0  0  0  0  0  0  0  0  0
   42.2903    2.7997   -6.6242 C   0  0  0  0  0  0  0  0  0  0  0  0
   41.5886    3.3812   -6.2124 C   0  0  0  0  0  0  0  0  0  0  0  0
   41.3225    4.2359   -6.6583 C   0  0  0  0  0  0  0  0  0  0  0  0
   41.9210    5.0352   -6.6046 O   0  0  0  0  0  0  0  0  0  0  0  0
   40.4581    4.2911   -7.1579 N   0  0  0  0  0  0  0  0  0  0  0  0
   39.8690    3.5042   -7.2108 H   0  0  0  0  0  0  0  0  0  0  0  0
   40.1962    5.1325   -7.5969 H   0  0  0  0  0  0  0  0  0  0  0  0
   45.6126    1.1942   -5.5027 C   0  0  0  0  0  0  0  0  0  0  0  0
   46.0455    0.6727   -6.2379 C   0  0  0  0  0  0  0  0  0  0  0  0
   46.5687   -0.1524   -6.0247 C   0  0  0  0  0  0  0  0  0  0  0  0
   47.4068   -0.3575   -6.5300 O   0  0  0  0  0  0  0  0  0  0  0  0
   46.2537   -0.7724   -5.3060 N   0  0  0  0  0  0  0  0  0  0  0  0
   45.4285   -0.5704   -4.8085 H   0  0  0  0  0  0  0  0  0  0  0  0
   46.7688   -1.5847   -5.0961 H   0  0  0  0  0  0  0  0  0  0  0  0
   43.8343    5.8928   -3.5965 C   0  0  0  0  0  0  0  0  0  0  0  0
   42.9403    5.6614   -3.9801 O   0  0  0  0  0  0  0  0  0  0  0  0
   42.4944    6.2808   -4.5790 H   0  0  0  0  0  0  0  0  0  0  0  0
   44.9831    4.9021    0.1510 C   0  0  0  0  0  0  0  0  0  0  0  0
   45.6309    4.1823    0.4005 C   0  0  0  0  0  0  0  0  0  0  0  0
   45.7107    3.7488    1.2981 C   0  0  0  0  0  0  0  0  0  0  0  0
   46.4417    3.0681    1.2486 N   0  0  0  0  0  0  0  0  0  0  0  0
   46.8137    3.0812    0.3204 C   0  0  0  0  0  0  0  0  0  0  0  0
   46.3125    3.7698   -0.2037 N   0  0  0  0  0  0  0  0  0  0  0  0
   46.4637    4.0009   -1.1486 H   0  0  0  0  0  0  0  0  0  0  0  0
 95 96  1  0  0  0
 95 97  1  0  0  0
 95 98  1  0  0  0
 96 91  1  0  0  0
 96 99  1  0  0  0
 91 92  2  0  0  0
 91 93  1  0  0  0
 93 90  1  0  0  0
 93 94  1  0  0  0
 90103  1  0  0  0
 90 86  1  0  0  0
103104  1  0  0  0
104105  1  0  0  0
105106  2  0  0  0
105107  1  0  0  0
107108  1  0  0  0
107109  1  0  0  0
 86 87  2  0  0  0
 86 88  1  0  0  0
 88 85  1  0  0  0
 88 89  1  0  0  0
 85110  1  0  0  0
 85 81  1  0  0  0
110111  1  0  0  0
111112  1  0  0  0
112113  2  0  0  0
112114  1  0  0  0
114115  1  0  0  0
114116  1  0  0  0
 81 82  2  0  0  0
 81 83  1  0  0  0
 83 79  1  0  0  0
 83 84  1  0  0  0
 79 80  1  0  0  0
 79 75  1  0  0  0
 75 76  2  0  0  0
 75 77  1  0  0  0
 77 74  1  0  0  0
 77 78  1  0  0  0
 74117  1  0  0  0
 74 70  1  0  0  0
117118  1  0  0  0
118119  1  0  0  0
 70 71  2  0  0  0
 70 72  1  0  0  0
 72 69  1  0  0  0
 72 73  1  0  0  0
 69120  1  0  0  0
 69 65  1  0  0  0
120121  1  0  0  0
121125  1  0  0  0
121122  2  0  0  0
122123  1  0  0  0
123124  2  0  0  0
124125  1  0  0  0
125126  1  0  0  0
 65 66  2  0  0  0
 65 67  1  0  0  0
 67  1  1  0  0  0
 67 68  1  0  0  0
  1  2  1  0  0  0
  1 10  1  0  0  0
  2  8  2  0  0  0
  2  3  1  0  0  0
  3  4  2  0  0  0
  4  5  1  0  0  0
  5  6  1  0  0  0
  5  7  2  0  0  0
  6  9  1  0  0  0
  7  8  1  0  0  0
 10 11  2  0  0  0
 10 12  1  0  0  0
 12 14  1  0  0  0
 12 13  1  0  0  0
 14 58  1  0  0  0
 14 15  1  0  0  0
 58 59  1  0  0  0
 59 60  1  0  0  0
 60 61  1  0  0  0
 61 62  1  0  0  0
 62 63  1  0  0  0
 62 64  1  0  0  0
 15 16  2  0  0  0
 15 17  1  0  0  0
 17 19  1  0  0  0
 17 18  1  0  0  0
 19 51  1  0  0  0
 19 20  1  0  0  0
 51 52  1  0  0  0
 52 53  1  0  0  0
 53 54  2  0  0  0
 53 55  1  0  0  0
 55 56  1  0  0  0
 55 57  1  0  0  0
 20 21  2  0  0  0
 20 22  1  0  0  0
 22 24  1  0  0  0
 22 23  1  0  0  0
 24 44  1  0  0  0
 24 25  1  0  0  0
 44 45  1  0  0  0
 45 49  1  0  0  0
 45 46  2  0  0  0
 46 47  1  0  0  0
 47 48  2  0  0  0
 48 49  1  0  0  0
 49 50  1  0  0  0
 25 26  2  0  0  0
 25 27  1  0  0  0
 27 29  1  0  0  0
 27 28  1  0  0  0
 29 41  1  0  0  0
 29 30  1  0  0  0
 41 42  1  0  0  0
 42 43  1  0  0  0
 30 31  2  0  0  0
 30 32  1  0  0  0
 32 36  1  0  0  0
 32 33  1  0  0  0
 33 34  1  0  0  0
 34 35  1  0  0  0
 35 36  1  0  0  0
 36 37  1  0  0  0
 37 38  1  0  0  0
 37 39  2  0  0  0
 38 40  1  0  0  0
 99100  1  0  0  0
 99101  1  0  0  0
100102  1  0  0  0
M  END
> <minimizedAffinity>
-4.19287

$$$$



126129  0  0  0  0  0  0  0  0999 V2000
   34.5846    4.7904    3.5752 C   0  0  0  0  0  0  0  0  0  0  0  0
   35.2144    4.4023    2.9025 C   0  0  0  0  0  0  0  0  0  0  0  0
   34.9233    3.6373    2.3280 C   0  0  0  0  0  0  0  0  0  0  0  0
   35.5533    3.2491    1.6552 C   0  0  0  0  0  0  0  0  0  0  0  0
   36.4743    3.6260    1.5570 C   0  0  0  0  0  0  0  0  0  0  0  0
   37.1041    3.2379    0.8842 O   0  0  0  0  0  0  0  0  0  0  0  0
   36.7654    4.3910    2.1314 C   0  0  0  0  0  0  0  0  0  0  0  0
   36.1355    4.7791    2.8042 C   0  0  0  0  0  0  0  0  0  0  0  0
   36.8314    2.5211    0.3459 H   0  0  0  0  0  0  0  0  0  0  0  0
   34.0687    5.6189    3.3574 C   0  0  0  0  0  0  0  0  0  0  0  0
   34.5507    6.4797    3.1944 O   0  0  0  0  0  0  0  0  0  0  0  0
   33.0707    5.5865    3.3025 N   0  0  0  0  0  0  0  0  0  0  0  0
   32.5961    4.7390    3.4629 H   0  0  0  0  0  0  0  0  0  0  0  0
   32.5547    6.4150    3.0847 C   0  0  0  0  0  0  0  0  0  0  0  0
   32.1807    6.9791    3.8207 C   0  0  0  0  0  0  0  0  0  0  0  0
   31.7036    6.5491    4.5871 O   0  0  0  0  0  0  0  0  0  0  0  0
   32.2838    7.9733    3.7904 N   0  0  0  0  0  0  0  0  0  0  0  0
   32.7535    8.3967    3.0359 H   0  0  0  0  0  0  0  0  0  0  0  0
   31.9098    8.5375    4.5265 C   0  0  0  0  0  0  0  0  0  0  0  0
   30.9474    8.8086    4.5089 C   0  0  0  0  0  0  0  0  0  0  0  0
   30.4890    8.9688    3.6347 O   0  0  0  0  0  0  0  0  0  0  0  0
   30.4434    8.9196    5.3655 N   0  0  0  0  0  0  0  0  0  0  0  0
   30.8947    8.7619    6.2261 H   0  0  0  0  0  0  0  0  0  0  0  0
   29.4810    9.1907    5.3479 C   0  0  0  0  0  0  0  0  0  0  0  0
   28.7695    8.5235    5.5681 C   0  0  0  0  0  0  0  0  0  0  0  0
   27.9170    8.5107    5.0455 O   0  0  0  0  0  0  0  0  0  0  0  0
   28.9104    7.8690    6.3110 N   0  0  0  0  0  0  0  0  0  0  0  0
   29.7497    7.8816    6.8254 H   0  0  0  0  0  0  0  0  0  0  0  0
   28.1989    7.2018    6.5312 C   0  0  0  0  0  0  0  0  0  0  0  0
   28.4411    6.2429    6.6789 C   0  0  0  0  0  0  0  0  0  0  0  0
   28.8967    5.9669    7.5252 O   0  0  0  0  0  0  0  0  0  0  0  0
   28.2277    5.5600    5.9802 N   0  0  0  0  0  0  0  0  0  0  0  0
   27.7764    5.7354    5.1053 C   0  0  0  0  0  0  0  0  0  0  0  0
   27.6980    4.8656    4.6182 C   0  0  0  0  0  0  0  0  0  0  0  0
   28.1008    4.1526    5.1921 C   0  0  0  0  0  0  0  0  0  0  0  0
   28.4282    4.5818    6.0338 C   0  0  0  0  0  0  0  0  0  0  0  0
   28.8773    4.1147    6.7955 C   0  0  0  0  0  0  0  0  0  0  0  0
   29.8264    3.8125    6.7070 O   0  0  0  0  0  0  0  0  0  0  0  0
   28.3773    3.9499    7.6457 O   0  0  0  0  0  0  0  0  0  0  0  0
   30.2950    3.9669    5.9104 H   0  0  0  0  0  0  0  0  0  0  0  0
   27.2451    7.4935    6.6038 C   0  0  0  0  0  0  0  0  0  0  0  0
   26.8788    7.7906    7.4856 S   0  0  0  0  0  0  0  0  0  0  0  0
   27.6777    7.7980    8.5861 H   0  0  0  0  0  0  0  0  0  0  0  0
   29.2302   10.1291    5.1101 C   0  0  0  0  0  0  0  0  0  0  0  0
   29.1463   10.8212    5.8269 C   0  0  0  0  0  0  0  0  0  0  0  0
   29.9012   11.3146    6.2589 C   0  0  0  0  0  0  0  0  0  0  0  0
   29.5142   11.9398    6.9366 N   0  0  0  0  0  0  0  0  0  0  0  0
   28.5200   11.8328    6.9236 C   0  0  0  0  0  0  0  0  0  0  0  0
   28.2927   11.1414    6.2377 N   0  0  0  0  0  0  0  0  0  0  0  0
   27.3873   10.8307    6.0074 H   0  0  0  0  0  0  0  0  0  0  0  0
   32.4981    8.8305    5.2802 C   0  0  0  0  0  0  0  0  0  0  0  0
   33.3749    9.2712    5.0879 C   0  0  0  0  0  0  0  0  0  0  0  0
   34.0309    9.4231    5.8271 C   0  0  0  0  0  0  0  0  0  0  0  0
   34.0065   10.2753    6.3499 O   0  0  0  0  0  0  0  0  0  0  0  0
   34.7113    8.7231    6.0436 N   0  0  0  0  0  0  0  0  0  0  0  0
   34.7353    7.8842    5.5289 H   0  0  0  0  0  0  0  0  0  0  0  0
   35.3572    8.8727    6.7714 H   0  0  0  0  0  0  0  0  0  0  0  0
   32.4129    6.6793    2.1307 C   0  0  0  0  0  0  0  0  0  0  0  0
   31.6949    6.2391    1.5914 C   0  0  0  0  0  0  0  0  0  0  0  0
   31.6843    6.3394    0.5965 C   0  0  0  0  0  0  0  0  0  0  0  0
   30.9911    5.8655    0.0535 C   0  0  0  0  0  0  0  0  0  0  0  0
   31.1257    4.9086   -0.2039 N   0  0  0  0  0  0  0  0  0  0  0  0
   31.9701    4.4160    0.0874 H   0  0  0  0  0  0  0  0  0  0  0  0
   30.4187    4.4252   -0.7578 H   0  0  0  0  0  0  0  0  0  0  0  0
   34.7719    4.8174    5.2969 C   0  0  0  0  0  0  0  0  0  0  0  0
   35.1872    5.7252    5.2375 O   0  0  0  0  0  0  0  0  0  0  0  0
   34.4706    4.3500    4.4658 N   0  0  0  0  0  0  0  0  0  0  0  0
   34.0617    3.4564    4.5242 H   0  0  0  0  0  0  0  0  0  0  0  0
   34.6579    4.3771    6.1874 C   0  0  0  0  0  0  0  0  0  0  0  0
   33.1657    4.5414    7.0514 C   0  0  0  0  0  0  0  0  0  0  0  0
   32.7623    3.8170    6.4924 O   0  0  0  0  0  0  0  0  0  0  0  0
   34.1135    4.8214    6.8989 N   0  0  0  0  0  0  0  0  0  0  0  0
   34.5108    5.5346    7.4492 H   0  0  0  0  0  0  0  0  0  0  0  0
   32.6214    4.9857    7.7629 C   0  0  0  0  0  0  0  0  0  0  0  0
   32.5511    4.5523    9.4383 C   0  0  0  0  0  0  0  0  0  0  0  0
   33.2788    5.2083    9.6385 O   0  0  0  0  0  0  0  0  0  0  0  0
   32.2224    4.4410    8.5005 N   0  0  0  0  0  0  0  0  0  0  0  0
   31.5059    3.7952    8.3034 H   0  0  0  0  0  0  0  0  0  0  0  0
   32.1521    4.0076   10.1760 C   0  0  0  0  0  0  0  0  0  0  0  0
   31.1699    4.0552   10.3576 C   0  0  0  0  0  0  0  0  0  0  0  0
   32.5192    2.4432   10.8223 C   0  0  0  0  0  0  0  0  0  0  0  0
   31.7200    2.0633   10.3566 O   0  0  0  0  0  0  0  0  0  0  0  0
   32.7353    3.4154   10.7320 N   0  0  0  0  0  0  0  0  0  0  0  0
   33.5221    3.7895   11.1905 H   0  0  0  0  0  0  0  0  0  0  0  0
   33.1024    1.8509   11.3783 C   0  0  0  0  0  0  0  0  0  0  0  0
   32.8015    1.5591   13.0588 C   0  0  0  0  0  0  0  0  0  0  0  0
   33.3053    2.3904   13.2934 O   0  0  0  0  0  0  0  0  0  0  0  0
   32.7001    1.2893   12.1013 N   0  0  0  0  0  0  0  0  0  0  0  0
   32.2041    0.4709   11.8703 H   0  0  0  0  0  0  0  0  0  0  0  0
   32.3992    0.9974   13.7818 C   0  0  0  0  0  0  0  0  0  0  0  0
   33.2116   -0.4665   14.2253 C   0  0  0  0  0  0  0  0  0  0  0  0
   32.8411   -0.9181   13.4137 O   0  0  0  0  0  0  0  0  0  0  0  0
   32.9907    0.4912   14.4094 N   0  0  0  0  0  0  0  0  0  0  0  0
   33.3555    0.9358   15.2084 H   0  0  0  0  0  0  0  0  0  0  0  0
   33.4179   -1.6883   15.4356 N   0  0  0  0  0  0  0  0  0  0  0  0
   33.8032   -0.9727   14.8529 C   0  0  0  0  0  0  0  0  0  0  0  0
   34.0212   -2.2046   16.0757 H   0  0  0  0  0  0  0  0  0  0  0  0
   32.4215   -1.9019   15.3897 H   0  0  0  0  0  0  0  0  0  0  0  0
   34.7800   -0.7634   14.8978 C   0  0  0  0  0  0  0  0  0  0  0  0
   35.3477   -0.8479   14.0789 O   0  0  0  0  0  0  0  0  0  0  0  0
   35.1891   -0.4694   15.7617 C   0  0  0  0  0  0  0  0  0  0  0  0
   34.9508   -1.1330   13.2410 H   0  0  0  0  0  0  0  0  0  0  0  0
   31.4053    0.9420   13.8773 C   0  0  0  0  0  0  0  0  0  0  0  0
   30.9509    1.3929   14.6455 C   0  0  0  0  0  0  0  0  0  0  0  0
   30.0307    1.1112   14.9175 C   0  0  0  0  0  0  0  0  0  0  0  0
   29.2436    1.3635   14.3546 O   0  0  0  0  0  0  0  0  0  0  0  0
   29.8977    0.5770   15.7523 N   0  0  0  0  0  0  0  0  0  0  0  0
   30.6726    0.3286   16.3064 H   0  0  0  0  0  0  0  0  0  0  0  0
   28.9918    0.2996   16.0201 H   0  0  0  0  0  0  0  0  0  0  0  0
   34.0879    1.8203   11.2113 C   0  0  0  0  0  0  0  0  0  0  0  0
   34.4695    1.1308   10.5957 C   0  0  0  0  0  0  0  0  0  0  0  0
   35.4186    0.8349   10.7033 C   0  0  0  0  0  0  0  0  0  0  0  0
   35.7743    0.6165   11.6121 O   0  0  0  0  0  0  0  0  0  0  0  0
   36.0121    0.7572    9.9022 N   0  0  0  0  0  0  0  0  0  0  0  0
   35.6619    0.9722    9.0075 H   0  0  0  0  0  0  0  0  0  0  0  0
   36.9465    0.4658   10.0082 H   0  0  0  0  0  0  0  0  0  0  0  0
   32.4760    5.9747    7.7367 C   0  0  0  0  0  0  0  0  0  0  0  0
   31.6654    6.3492    7.2865 O   0  0  0  0  0  0  0  0  0  0  0  0
   31.5245    7.3086    7.2611 H   0  0  0  0  0  0  0  0  0  0  0  0
   35.0883    3.4923    6.3665 C   0  0  0  0  0  0  0  0  0  0  0  0
   35.9326    3.4459    6.9003 C   0  0  0  0  0  0  0  0  0  0  0  0
   35.9955    3.3492    7.8936 C   0  0  0  0  0  0  0  0  0  0  0  0
   36.9641    3.3316    8.1418 N   0  0  0  0  0  0  0  0  0  0  0  0
   37.4999    3.4175    7.3017 C   0  0  0  0  0  0  0  0  0  0  0  0
   36.8623    3.4881    6.5345 N   0  0  0  0  0  0  0  0  0  0  0  0
   37.1071    3.5826    5.5856 H   0  0  0  0  0  0  0  0  0  0  0  0
 95 96  1  0  0  0
 95 97  1  0  0  0
 95 98  1  0  0  0
 96 91  1  0  0  0
 96 99  1  0  0  0
 91 92  2  0  0  0
 91 93  1  0  0  0
 93 90  1  0  0  0
 93 94  1  0  0  0
 90103  1  0  0  0
 90 86  1  0  0  0
103104  1  0  0  0
104105  1  0  0  0
105106  2  0  0  0
105107  1  0  0  0
107108  1  0  0  0
107109  1  0  0  0
 86 87  2  0  0  0
 86 88  1  0  0  0
 88 85  1  0  0  0
 88 89  1  0  0  0
 85110  1  0  0  0
 85 81  1  0  0  0
110111  1  0  0  0
111112  1  0  0  0
112113  2  0  0  0
112114  1  0  0  0
114115  1  0  0  0
114116  1  0  0  0
 81 82  2  0  0  0
 81 83  1  0  0  0
 83 79  1  0  0  0
 83 84  1  0  0  0
 79 80  1  0  0  0
 79 75  1  0  0  0
 75 76  2  0  0  0
 75 77  1  0  0  0
 77 74  1  0  0  0
 77 78  1  0  0  0
 74117  1  0  0  0
 74 70  1  0  0  0
117118  1  0  0  0
118119  1  0  0  0
 70 71  2  0  0  0
 70 72  1  0  0  0
 72 69  1  0  0  0
 72 73  1  0  0  0
 69120  1  0  0  0
 69 65  1  0  0  0
120121  1  0  0  0
121125  1  0  0  0
121122  2  0  0  0
122123  1  0  0  0
123124  2  0  0  0
124125  1  0  0  0
125126  1  0  0  0
 65 66  2  0  0  0
 65 67  1  0  0  0
 67  1  1  0  0  0
 67 68  1  0  0  0
  1  2  1  0  0  0
  1 10  1  0  0  0
  2  8  2  0  0  0
  2  3  1  0  0  0
  3  4  2  0  0  0
  4  5  1  0  0  0
  5  6  1  0  0  0
  5  7  2  0  0  0
  6  9  1  0  0  0
  7  8  1  0  0  0
 10 11  2  0  0  0
 10 12  1  0  0  0
 12 14  1  0  0  0
 12 13  1  0  0  0
 14 58  1  0  0  0
 14 15  1  0  0  0
 58 59  1  0  0  0
 59 60  1  0  0  0
 60 61  1  0  0  0
 61 62  1  0  0  0
 62 63  1  0  0  0
 62 64  1  0  0  0
 15 16  2  0  0  0
 15 17  1  0  0  0
 17 19  1  0  0  0
 17 18  1  0  0  0
 19 51  1  0  0  0
 19 20  1  0  0  0
 51 52  1  0  0  0
 52 53  1  0  0  0
 53 54  2  0  0  0
 53 55  1  0  0  0
 55 56  1  0  0  0
 55 57  1  0  0  0
 20 21  2  0  0  0
 20 22  1  0  0  0
 22 24  1  0  0  0
 22 23  1  0  0  0
 24 44  1  0  0  0
 24 25  1  0  0  0
 44 45  1  0  0  0
 45 49  1  0  0  0
 45 46  2  0  0  0
 46 47  1  0  0  0
 47 48  2  0  0  0
 48 49  1  0  0  0
 49 50  1  0  0  0
 25 26  2  0  0  0
 25 27  1  0  0  0
 27 29  1  0  0  0
 27 28  1  0  0  0
 29 41  1  0  0  0
 29 30  1  0  0  0
 41 42  1  0  0  0
 42 43  1  0  0  0
 30 31  2  0  0  0
 30 32  1  0  0  0
 32 36  1  0  0  0
 32 33  1  0  0  0
 33 34  1  0  0  0
 34 35  1  0  0  0
 35 36  1  0  0  0
 36 37  1  0  0  0
 37 38  1  0  0  0
 37 39  2  0  0  0
 38 40  1  0  0  0
 99100  1  0  0  0
 99101  1  0  0  0
100102  1  0  0  0
M  END
> <minimizedAffinity>
-4.17419

$$$$



126129  0  0  0  0  0  0  0  0999 V2000
   27.5078    6.7950    5.9748 C   0  0  0  0  0  0  0  0  0  0  0  0
   27.9535    6.5351    5.1182 C   0  0  0  0  0  0  0  0  0  0  0  0
   28.1055    5.5697    4.9065 C   0  0  0  0  0  0  0  0  0  0  0  0
   28.5513    5.3098    4.0498 C   0  0  0  0  0  0  0  0  0  0  0  0
   28.8450    6.0154    3.4050 C   0  0  0  0  0  0  0  0  0  0  0  0
   29.2908    5.7555    2.5484 O   0  0  0  0  0  0  0  0  0  0  0  0
   28.6931    6.9808    3.6167 C   0  0  0  0  0  0  0  0  0  0  0  0
   28.2473    7.2407    4.4733 C   0  0  0  0  0  0  0  0  0  0  0  0
   29.4332    4.8509    2.3500 H   0  0  0  0  0  0  0  0  0  0  0  0
   26.6199    7.2546    5.9570 C   0  0  0  0  0  0  0  0  0  0  0  0
   25.7781    6.7189    6.0231 O   0  0  0  0  0  0  0  0  0  0  0  0
   26.5738    8.2500    5.8730 N   0  0  0  0  0  0  0  0  0  0  0  0
   27.4025    8.7774    5.8079 H   0  0  0  0  0  0  0  0  0  0  0  0
   25.6858    8.7097    5.8552 C   0  0  0  0  0  0  0  0  0  0  0  0
   25.3524    9.1205    5.0066 C   0  0  0  0  0  0  0  0  0  0  0  0
   25.5598   10.0765    4.7988 O   0  0  0  0  0  0  0  0  0  0  0  0
   24.8116    8.5755    4.3660 N   0  0  0  0  0  0  0  0  0  0  0  0
   24.6075    7.6344    4.5706 H   0  0  0  0  0  0  0  0  0  0  0  0
   24.4782    8.9863    3.5174 C   0  0  0  0  0  0  0  0  0  0  0  0
   23.5031    9.1764    3.4034 C   0  0  0  0  0  0  0  0  0  0  0  0
   22.8512    8.4213    3.3341 O   0  0  0  0  0  0  0  0  0  0  0  0
   23.1799   10.1218    3.3587 N   0  0  0  0  0  0  0  0  0  0  0  0
   23.8217   10.8652    3.4270 H   0  0  0  0  0  0  0  0  0  0  0  0
   22.2048   10.3119    3.2447 C   0  0  0  0  0  0  0  0  0  0  0  0
   21.8298   10.4705    2.3314 C   0  0  0  0  0  0  0  0  0  0  0  0
   20.9312   10.1046    2.0894 O   0  0  0  0  0  0  0  0  0  0  0  0
   22.3534   10.9950    1.6601 N   0  0  0  0  0  0  0  0  0  0  0  0
   23.2380   11.3553    1.8983 H   0  0  0  0  0  0  0  0  0  0  0  0
   21.9784   11.1537    0.7467 C   0  0  0  0  0  0  0  0  0  0  0  0
   22.2956   10.6044   -0.0264 C   0  0  0  0  0  0  0  0  0  0  0  0
   21.6779    9.9492   -0.4611 O   0  0  0  0  0  0  0  0  0  0  0  0
   23.2307   10.7105   -0.3647 N   0  0  0  0  0  0  0  0  0  0  0  0
   23.9206   11.3354    0.0006 C   0  0  0  0  0  0  0  0  0  0  0  0
   24.7563   11.2213   -0.5367 C   0  0  0  0  0  0  0  0  0  0  0  0
   24.5828   10.5259   -1.2340 C   0  0  0  0  0  0  0  0  0  0  0  0
   23.6399   10.2102   -1.1278 C   0  0  0  0  0  0  0  0  0  0  0  0
   23.1860    9.5161   -1.6864 C   0  0  0  0  0  0  0  0  0  0  0  0
   23.2055    8.5566   -1.4051 O   0  0  0  0  0  0  0  0  0  0  0  0
   22.7126    9.7814   -2.5264 O   0  0  0  0  0  0  0  0  0  0  0  0
   23.6490    8.3081   -0.6181 H   0  0  0  0  0  0  0  0  0  0  0  0
   21.2860   11.8616    0.6064 C   0  0  0  0  0  0  0  0  0  0  0  0
   21.5162   12.8229    0.7572 S   0  0  0  0  0  0  0  0  0  0  0  0
   22.7709   13.1678    1.1529 H   0  0  0  0  0  0  0  0  0  0  0  0
   21.6047   10.3434    4.0440 C   0  0  0  0  0  0  0  0  0  0  0  0
   21.6407   11.1258    4.6658 C   0  0  0  0  0  0  0  0  0  0  0  0
   22.1586   11.1745    5.5198 C   0  0  0  0  0  0  0  0  0  0  0  0
   22.0031   12.0756    5.9245 N   0  0  0  0  0  0  0  0  0  0  0  0
   21.3891   12.5839    5.3206 C   0  0  0  0  0  0  0  0  0  0  0  0
   21.1651   11.9967    4.5426 N   0  0  0  0  0  0  0  0  0  0  0  0
   20.5793   12.2346    3.7880 H   0  0  0  0  0  0  0  0  0  0  0  0
   25.1199    9.2070    2.7829 C   0  0  0  0  0  0  0  0  0  0  0  0
   25.4281    8.4912    2.1563 C   0  0  0  0  0  0  0  0  0  0  0  0
   26.1991    8.6617    1.5428 C   0  0  0  0  0  0  0  0  0  0  0  0
   26.8775    9.3592    1.7742 O   0  0  0  0  0  0  0  0  0  0  0  0
   26.2919    8.1348    0.6979 N   0  0  0  0  0  0  0  0  0  0  0  0
   25.6240    7.4482    0.4702 H   0  0  0  0  0  0  0  0  0  0  0  0
   27.0509    8.3027    0.0939 H   0  0  0  0  0  0  0  0  0  0  0  0
   25.1313    8.7586    6.6859 C   0  0  0  0  0  0  0  0  0  0  0  0
   25.3339    9.4469    7.3825 C   0  0  0  0  0  0  0  0  0  0  0  0
   24.6889    9.6069    8.1298 C   0  0  0  0  0  0  0  0  0  0  0  0
   24.9282   10.2338    8.8712 C   0  0  0  0  0  0  0  0  0  0  0  0
   24.8637    9.9312    9.8222 N   0  0  0  0  0  0  0  0  0  0  0  0
   24.5539    8.9831   10.0358 H   0  0  0  0  0  0  0  0  0  0  0  0
   25.1078   10.5706   10.5785 H   0  0  0  0  0  0  0  0  0  0  0  0
   28.5861    7.2545    7.2500 C   0  0  0  0  0  0  0  0  0  0  0  0
   28.7801    8.1137    6.7763 O   0  0  0  0  0  0  0  0  0  0  0  0
   27.9500    6.5952    6.8492 N   0  0  0  0  0  0  0  0  0  0  0  0
   27.7590    5.7494    7.3155 H   0  0  0  0  0  0  0  0  0  0  0  0
   29.0282    7.0548    8.1244 C   0  0  0  0  0  0  0  0  0  0  0  0
   30.5619    6.2513    8.0784 C   0  0  0  0  0  0  0  0  0  0  0  0
   30.1023    5.3851    7.8824 O   0  0  0  0  0  0  0  0  0  0  0  0
   30.0249    7.0861    8.1994 N   0  0  0  0  0  0  0  0  0  0  0  0
   30.4774    7.9389    8.3923 H   0  0  0  0  0  0  0  0  0  0  0  0
   31.5586    6.2826    8.1534 C   0  0  0  0  0  0  0  0  0  0  0  0
   32.6488    6.6242    6.8516 C   0  0  0  0  0  0  0  0  0  0  0  0
   32.6016    7.5994    7.0679 O   0  0  0  0  0  0  0  0  0  0  0  0
   32.1274    5.9658    7.3943 N   0  0  0  0  0  0  0  0  0  0  0  0
   32.1739    5.0058    7.1814 H   0  0  0  0  0  0  0  0  0  0  0  0
   33.2176    6.3074    6.0925 C   0  0  0  0  0  0  0  0  0  0  0  0
   33.8290    5.5261    6.2180 C   0  0  0  0  0  0  0  0  0  0  0  0
   32.6147    6.3935    4.4711 C   0  0  0  0  0  0  0  0  0  0  0  0
   32.0973    5.5506    4.6187 O   0  0  0  0  0  0  0  0  0  0  0  0
   33.1749    6.7719    5.2080 N   0  0  0  0  0  0  0  0  0  0  0  0
   33.6844    7.6016    5.0626 H   0  0  0  0  0  0  0  0  0  0  0  0
   32.5720    6.8579    3.5864 C   0  0  0  0  0  0  0  0  0  0  0  0
   33.4009    6.2228    2.2046 C   0  0  0  0  0  0  0  0  0  0  0  0
   34.2476    6.6561    2.5133 O   0  0  0  0  0  0  0  0  0  0  0  0
   32.5632    6.3237    2.7412 N   0  0  0  0  0  0  0  0  0  0  0  0
   31.7296    5.8970    2.4373 H   0  0  0  0  0  0  0  0  0  0  0  0
   33.3921    5.6885    1.3593 C   0  0  0  0  0  0  0  0  0  0  0  0
   32.2389    6.0211    0.1105 C   0  0  0  0  0  0  0  0  0  0  0  0
   32.8206    6.7596   -0.2301 O   0  0  0  0  0  0  0  0  0  0  0  0
   32.5246    5.4855    0.9052 N   0  0  0  0  0  0  0  0  0  0  0  0
   31.9518    4.7583    1.2406 H   0  0  0  0  0  0  0  0  0  0  0  0
   31.1727    4.8866   -0.6487 N   0  0  0  0  0  0  0  0  0  0  0  0
   31.3713    5.8180   -0.3436 C   0  0  0  0  0  0  0  0  0  0  0  0
   30.2879    4.6794   -1.1118 H   0  0  0  0  0  0  0  0  0  0  0  0
   31.8550    4.1438   -0.4967 H   0  0  0  0  0  0  0  0  0  0  0  0
   30.7024    6.5462   -0.4925 C   0  0  0  0  0  0  0  0  0  0  0  0
   30.3319    7.0519    0.2867 O   0  0  0  0  0  0  0  0  0  0  0  0
   30.4040    6.7689   -1.4206 C   0  0  0  0  0  0  0  0  0  0  0  0
   30.6214    6.8359    1.1870 H   0  0  0  0  0  0  0  0  0  0  0  0
   34.2507    5.3573    0.9682 C   0  0  0  0  0  0  0  0  0  0  0  0
   34.4595    4.3794    0.9765 C   0  0  0  0  0  0  0  0  0  0  0  0
   35.1767    4.0161    0.3817 C   0  0  0  0  0  0  0  0  0  0  0  0
   34.9558    3.7307   -0.5509 O   0  0  0  0  0  0  0  0  0  0  0  0
   36.1147    3.9383    0.7195 N   0  0  0  0  0  0  0  0  0  0  0  0
   36.3321    4.2193    1.6376 H   0  0  0  0  0  0  0  0  0  0  0  0
   36.8206    3.5807    0.1339 H   0  0  0  0  0  0  0  0  0  0  0  0
   32.5382    7.8565    3.5471 C   0  0  0  0  0  0  0  0  0  0  0  0
   31.6722    8.3205    3.3606 C   0  0  0  0  0  0  0  0  0  0  0  0
   31.6698    9.2096    2.9029 C   0  0  0  0  0  0  0  0  0  0  0  0
   31.5696    9.2600    1.9092 O   0  0  0  0  0  0  0  0  0  0  0  0
   31.7677   10.0482    3.4388 N   0  0  0  0  0  0  0  0  0  0  0  0
   31.8664    9.9985    4.4171 H   0  0  0  0  0  0  0  0  0  0  0  0
   31.7653   10.9235    2.9881 H   0  0  0  0  0  0  0  0  0  0  0  0
   31.9865    6.6308    8.9874 C   0  0  0  0  0  0  0  0  0  0  0  0
   32.0910    6.0335    9.7826 O   0  0  0  0  0  0  0  0  0  0  0  0
   32.5062    6.3713   10.5917 H   0  0  0  0  0  0  0  0  0  0  0  0
   28.4736    6.8236    8.9238 C   0  0  0  0  0  0  0  0  0  0  0  0
   28.3920    7.4725    9.6803 C   0  0  0  0  0  0  0  0  0  0  0  0
   28.7343    7.3374   10.6101 C   0  0  0  0  0  0  0  0  0  0  0  0
   28.5077    8.1519   11.1443 N   0  0  0  0  0  0  0  0  0  0  0  0
   28.0252    8.7904   10.5445 C   0  0  0  0  0  0  0  0  0  0  0  0
   27.9538    8.3704    9.6398 N   0  0  0  0  0  0  0  0  0  0  0  0
   27.5270    8.7708    8.8481 H   0  0  0  0  0  0  0  0  0  0  0  0
 95 96  1  0  0  0
 95 97  1  0  0  0
 95 98  1  0  0  0
 96 91  1  0  0  0
 96 99  1  0  0  0
 91 92  2  0  0  0
 91 93  1  0  0  0
 93 90  1  0  0  0
 93 94  1  0  0  0
 90103  1  0  0  0
 90 86  1  0  0  0
103104  1  0  0  0
104105  1  0  0  0
105106  2  0  0  0
105107  1  0  0  0
107108  1  0  0  0
107109  1  0  0  0
 86 87  2  0  0  0
 86 88  1  0  0  0
 88 85  1  0  0  0
 88 89  1  0  0  0
 85110  1  0  0  0
 85 81  1  0  0  0
110111  1  0  0  0
111112  1  0  0  0
112113  2  0  0  0
112114  1  0  0  0
114115  1  0  0  0
114116  1  0  0  0
 81 82  2  0  0  0
 81 83  1  0  0  0
 83 79  1  0  0  0
 83 84  1  0  0  0
 79 80  1  0  0  0
 79 75  1  0  0  0
 75 76  2  0  0  0
 75 77  1  0  0  0
 77 74  1  0  0  0
 77 78  1  0  0  0
 74117  1  0  0  0
 74 70  1  0  0  0
117118  1  0  0  0
118119  1  0  0  0
 70 71  2  0  0  0
 70 72  1  0  0  0
 72 69  1  0  0  0
 72 73  1  0  0  0
 69120  1  0  0  0
 69 65  1  0  0  0
120121  1  0  0  0
121125  1  0  0  0
121122  2  0  0  0
122123  1  0  0  0
123124  2  0  0  0
124125  1  0  0  0
125126  1  0  0  0
 65 66  2  0  0  0
 65 67  1  0  0  0
 67  1  1  0  0  0
 67 68  1  0  0  0
  1  2  1  0  0  0
  1 10  1  0  0  0
  2  8  2  0  0  0
  2  3  1  0  0  0
  3  4  2  0  0  0
  4  5  1  0  0  0
  5  6  1  0  0  0
  5  7  2  0  0  0
  6  9  1  0  0  0
  7  8  1  0  0  0
 10 11  2  0  0  0
 10 12  1  0  0  0
 12 14  1  0  0  0
 12 13  1  0  0  0
 14 58  1  0  0  0
 14 15  1  0  0  0
 58 59  1  0  0  0
 59 60  1  0  0  0
 60 61  1  0  0  0
 61 62  1  0  0  0
 62 63  1  0  0  0
 62 64  1  0  0  0
 15 16  2  0  0  0
 15 17  1  0  0  0
 17 19  1  0  0  0
 17 18  1  0  0  0
 19 51  1  0  0  0
 19 20  1  0  0  0
 51 52  1  0  0  0
 52 53  1  0  0  0
 53 54  2  0  0  0
 53 55  1  0  0  0
 55 56  1  0  0  0
 55 57  1  0  0  0
 20 21  2  0  0  0
 20 22  1  0  0  0
 22 24  1  0  0  0
 22 23  1  0  0  0
 24 44  1  0  0  0
 24 25  1  0  0  0
 44 45  1  0  0  0
 45 49  1  0  0  0
 45 46  2  0  0  0
 46 47  1  0  0  0
 47 48  2  0  0  0
 48 49  1  0  0  0
 49 50  1  0  0  0
 25 26  2  0  0  0
 25 27  1  0  0  0
 27 29  1  0  0  0
 27 28  1  0  0  0
 29 41  1  0  0  0
 29 30  1  0  0  0
 41 42  1  0  0  0
 42 43  1  0  0  0
 30 31  2  0  0  0
 30 32  1  0  0  0
 32 36  1  0  0  0
 32 33  1  0  0  0
 33 34  1  0  0  0
 34 35  1  0  0  0
 35 36  1  0  0  0
 36 37  1  0  0  0
 37 38  1  0  0  0
 37 39  2  0  0  0
 38 40  1  0  0  0
 99100  1  0  0  0
 99101  1  0  0  0
100102  1  0  0  0
M  END
> <minimizedAffinity>
-4.13817

$$$$



126129  0  0  0  0  0  0  0  0999 V2000
   39.5719    3.2173   -0.3667 C   0  0  0  0  0  0  0  0  0  0  0  0
   38.9740    2.7554   -1.0217 C   0  0  0  0  0  0  0  0  0  0  0  0
   38.6805    3.2298   -1.8517 C   0  0  0  0  0  0  0  0  0  0  0  0
   38.0825    2.7678   -2.5067 C   0  0  0  0  0  0  0  0  0  0  0  0
   37.7780    1.8314   -2.3318 C   0  0  0  0  0  0  0  0  0  0  0  0
   37.1801    1.3695   -2.9868 O   0  0  0  0  0  0  0  0  0  0  0  0
   38.0715    1.3571   -1.5018 C   0  0  0  0  0  0  0  0  0  0  0  0
   38.6695    1.8190   -0.8468 C   0  0  0  0  0  0  0  0  0  0  0  0
   36.9051    1.8140   -3.7645 H   0  0  0  0  0  0  0  0  0  0  0  0
   39.2043    3.9325    0.2277 C   0  0  0  0  0  0  0  0  0  0  0  0
   39.0544    4.8535   -0.1319 O   0  0  0  0  0  0  0  0  0  0  0  0
   38.9867    3.7268    1.1818 N   0  0  0  0  0  0  0  0  0  0  0  0
   39.1343    2.8201    1.5359 H   0  0  0  0  0  0  0  0  0  0  0  0
   38.6191    4.4420    1.7763 C   0  0  0  0  0  0  0  0  0  0  0  0
   37.6518    4.6894    1.7216 C   0  0  0  0  0  0  0  0  0  0  0  0
   37.3868    5.6442    1.5868 O   0  0  0  0  0  0  0  0  0  0  0  0
   36.9494    3.9821    1.8017 N   0  0  0  0  0  0  0  0  0  0  0  0
   37.2104    3.0422    1.9343 H   0  0  0  0  0  0  0  0  0  0  0  0
   35.9821    4.2295    1.7469 C   0  0  0  0  0  0  0  0  0  0  0  0
   35.4095    4.1925    2.5659 C   0  0  0  0  0  0  0  0  0  0  0  0
   34.9083    3.3562    2.7882 O   0  0  0  0  0  0  0  0  0  0  0  0
   35.3380    4.9918    3.1626 N   0  0  0  0  0  0  0  0  0  0  0  0
   35.8314    5.8152    2.9438 H   0  0  0  0  0  0  0  0  0  0  0  0
   34.7653    4.9548    3.9816 C   0  0  0  0  0  0  0  0  0  0  0  0
   33.8502    5.3578    3.9704 C   0  0  0  0  0  0  0  0  0  0  0  0
   33.1214    4.9587    4.5267 O   0  0  0  0  0  0  0  0  0  0  0  0
   33.6640    6.1598    3.4030 N   0  0  0  0  0  0  0  0  0  0  0  0
   34.3815    6.5527    2.8554 H   0  0  0  0  0  0  0  0  0  0  0  0
   32.7488    6.5628    3.3918 C   0  0  0  0  0  0  0  0  0  0  0  0
   32.1512    6.4246    2.6020 C   0  0  0  0  0  0  0  0  0  0  0  0
   31.2852    5.9363    2.7097 O   0  0  0  0  0  0  0  0  0  0  0  0
   32.4197    6.7746    1.7045 N   0  0  0  0  0  0  0  0  0  0  0  0
   33.2611    7.2730    1.4957 C   0  0  0  0  0  0  0  0  0  0  0  0
   33.2552    7.4941    0.5204 C   0  0  0  0  0  0  0  0  0  0  0  0
   32.4102    7.1324    0.1267 C   0  0  0  0  0  0  0  0  0  0  0  0
   31.8938    6.6877    0.8585 C   0  0  0  0  0  0  0  0  0  0  0  0
   31.0072    6.2356    0.7612 C   0  0  0  0  0  0  0  0  0  0  0  0
   30.9630    5.2770    0.4798 O   0  0  0  0  0  0  0  0  0  0  0  0
   30.1648    6.7420    0.9455 O   0  0  0  0  0  0  0  0  0  0  0  0
   31.7523    4.8025    0.3072 H   0  0  0  0  0  0  0  0  0  0  0  0
   32.4312    7.1041    4.1705 C   0  0  0  0  0  0  0  0  0  0  0  0
   32.8222    8.0080    4.3438 S   0  0  0  0  0  0  0  0  0  0  0  0
   33.7859    8.5013    3.5206 H   0  0  0  0  0  0  0  0  0  0  0  0
   35.1078    4.5148    4.8117 C   0  0  0  0  0  0  0  0  0  0  0  0
   35.7250    5.0110    5.4224 C   0  0  0  0  0  0  0  0  0  0  0  0
   36.7235    5.0205    5.3681 C   0  0  0  0  0  0  0  0  0  0  0  0
   37.0677    5.6001    6.1067 N   0  0  0  0  0  0  0  0  0  0  0  0
   36.2819    5.9489    6.6176 C   0  0  0  0  0  0  0  0  0  0  0  0
   35.4520    5.5847    6.1946 N   0  0  0  0  0  0  0  0  0  0  0  0
   34.5286    5.7602    6.4872 H   0  0  0  0  0  0  0  0  0  0  0  0
   35.5874    4.5140    0.8733 C   0  0  0  0  0  0  0  0  0  0  0  0
   35.0434    3.8689    0.3367 C   0  0  0  0  0  0  0  0  0  0  0  0
   34.7170    4.1257   -0.5730 C   0  0  0  0  0  0  0  0  0  0  0  0
   35.3661    4.4340   -1.2685 O   0  0  0  0  0  0  0  0  0  0  0  0
   33.7416    4.0743   -0.7872 N   0  0  0  0  0  0  0  0  0  0  0  0
   33.1026    3.7709   -0.1024 H   0  0  0  0  0  0  0  0  0  0  0  0
   33.4203    4.3271   -1.6828 H   0  0  0  0  0  0  0  0  0  0  0  0
   39.2189    4.9097    2.4255 C   0  0  0  0  0  0  0  0  0  0  0  0
   39.7543    4.3795    3.0831 C   0  0  0  0  0  0  0  0  0  0  0  0
   40.0361    4.7941    3.9483 C   0  0  0  0  0  0  0  0  0  0  0  0
   40.9052    4.5330    4.3682 C   0  0  0  0  0  0  0  0  0  0  0  0
   40.9276    3.8202    5.0693 N   0  0  0  0  0  0  0  0  0  0  0  0
   40.0638    3.3596    5.3560 H   0  0  0  0  0  0  0  0  0  0  0  0
   41.8141    3.5538    5.4976 H   0  0  0  0  0  0  0  0  0  0  0  0
   41.2440    3.6203   -0.5708 C   0  0  0  0  0  0  0  0  0  0  0  0
   40.9851    4.5298   -0.8960 O   0  0  0  0  0  0  0  0  0  0  0  0
   40.5374    2.9641   -0.3061 N   0  0  0  0  0  0  0  0  0  0  0  0
   40.7922    2.0687    0.0141 H   0  0  0  0  0  0  0  0  0  0  0  0
   42.2095    3.3670   -0.5102 C   0  0  0  0  0  0  0  0  0  0  0  0
   43.2180    2.8112   -1.8040 C   0  0  0  0  0  0  0  0  0  0  0  0
   42.9927    1.8647   -1.5730 O   0  0  0  0  0  0  0  0  0  0  0  0
   42.8264    3.5623   -1.2725 N   0  0  0  0  0  0  0  0  0  0  0  0
   43.0483    4.4942   -1.4999 H   0  0  0  0  0  0  0  0  0  0  0  0
   43.8350    3.0065   -2.5663 C   0  0  0  0  0  0  0  0  0  0  0  0
   43.6442    2.7568   -4.2696 C   0  0  0  0  0  0  0  0  0  0  0  0
   43.4101    3.7221   -4.3849 O   0  0  0  0  0  0  0  0  0  0  0  0
   43.8566    2.3990   -3.3603 N   0  0  0  0  0  0  0  0  0  0  0  0
   44.0871    1.4486   -3.2467 H   0  0  0  0  0  0  0  0  0  0  0  0
   43.6659    2.1492   -5.0636 C   0  0  0  0  0  0  0  0  0  0  0  0
   44.4926    1.6262   -5.2706 C   0  0  0  0  0  0  0  0  0  0  0  0
   42.3697    1.1952   -5.7037 C   0  0  0  0  0  0  0  0  0  0  0  0
   42.6839    0.4102   -5.1698 O   0  0  0  0  0  0  0  0  0  0  0  0
   42.8607    2.0647   -5.6506 N   0  0  0  0  0  0  0  0  0  0  0  0
   42.5515    2.8376   -6.1763 H   0  0  0  0  0  0  0  0  0  0  0  0
   41.5645    1.1106   -6.2908 C   0  0  0  0  0  0  0  0  0  0  0  0
   40.1636    2.0769   -5.9690 C   0  0  0  0  0  0  0  0  0  0  0  0
   39.8861    1.4362   -5.2531 O   0  0  0  0  0  0  0  0  0  0  0  0
   41.0028    1.9142   -6.4878 N   0  0  0  0  0  0  0  0  0  0  0  0
   41.2761    2.5449   -7.1925 H   0  0  0  0  0  0  0  0  0  0  0  0
   39.6019    2.8805   -6.1660 C   0  0  0  0  0  0  0  0  0  0  0  0
   39.9170    4.4715   -5.5584 C   0  0  0  0  0  0  0  0  0  0  0  0
   40.4966    4.6595   -6.3513 O   0  0  0  0  0  0  0  0  0  0  0  0
   39.4697    3.5820   -5.4657 N   0  0  0  0  0  0  0  0  0  0  0  0
   38.8991    3.3969   -4.6851 H   0  0  0  0  0  0  0  0  0  0  0  0
   38.8763    5.5622   -4.7055 N   0  0  0  0  0  0  0  0  0  0  0  0
   39.7848    5.1731   -4.8581 C   0  0  0  0  0  0  0  0  0  0  0  0
   38.7414    6.2777   -3.9912 H   0  0  0  0  0  0  0  0  0  0  0  0
   38.0846    5.2436   -5.2642 H   0  0  0  0  0  0  0  0  0  0  0  0
   40.5610    5.4855   -4.3104 C   0  0  0  0  0  0  0  0  0  0  0  0
   41.0340    4.8467   -3.7036 O   0  0  0  0  0  0  0  0  0  0  0  0
   40.8641    6.4366   -4.3696 C   0  0  0  0  0  0  0  0  0  0  0  0
   40.7400    3.9241   -3.6462 H   0  0  0  0  0  0  0  0  0  0  0  0
   39.1724    2.9825   -7.0632 C   0  0  0  0  0  0  0  0  0  0  0  0
   38.2509    2.6270   -7.2198 C   0  0  0  0  0  0  0  0  0  0  0  0
   37.7710    2.8391   -8.0711 C   0  0  0  0  0  0  0  0  0  0  0  0
   37.5911    3.7908   -8.3200 O   0  0  0  0  0  0  0  0  0  0  0  0
   37.4711    2.0995   -8.6736 N   0  0  0  0  0  0  0  0  0  0  0  0
   37.6483    1.1626   -8.4286 H   0  0  0  0  0  0  0  0  0  0  0  0
   36.9987    2.3083   -9.5117 H   0  0  0  0  0  0  0  0  0  0  0  0
   41.3211    0.2226   -6.6807 C   0  0  0  0  0  0  0  0  0  0  0  0
   41.4989    0.0351   -7.6468 C   0  0  0  0  0  0  0  0  0  0  0  0
   41.2180   -0.8373   -8.0467 C   0  0  0  0  0  0  0  0  0  0  0  0
   41.7821   -1.6524   -7.9150 O   0  0  0  0  0  0  0  0  0  0  0  0
   40.3729   -0.8946   -8.5783 N   0  0  0  0  0  0  0  0  0  0  0  0
   39.8175   -0.0921   -8.7080 H   0  0  0  0  0  0  0  0  0  0  0  0
   40.0963   -1.7536   -8.9721 H   0  0  0  0  0  0  0  0  0  0  0  0
   44.4303    3.8094   -2.5347 C   0  0  0  0  0  0  0  0  0  0  0  0
   45.3721    3.7210   -2.2103 O   0  0  0  0  0  0  0  0  0  0  0  0
   45.9495    4.4999   -2.1796 H   0  0  0  0  0  0  0  0  0  0  0  0
   42.5580    2.9184    0.3129 C   0  0  0  0  0  0  0  0  0  0  0  0
   43.0081    3.4583    1.0241 C   0  0  0  0  0  0  0  0  0  0  0  0
   43.6208    3.1049    1.7310 C   0  0  0  0  0  0  0  0  0  0  0  0
   43.9159    3.8746    2.2972 N   0  0  0  0  0  0  0  0  0  0  0  0
   43.4854    4.7037    1.9402 C   0  0  0  0  0  0  0  0  0  0  0  0
   42.9244    4.4463    1.1534 N   0  0  0  0  0  0  0  0  0  0  0  0
   42.3844    5.0583    0.6028 H   0  0  0  0  0  0  0  0  0  0  0  0
 95 96  1  0  0  0
 95 97  1  0  0  0
 95 98  1  0  0  0
 96 91  1  0  0  0
 96 99  1  0  0  0
 91 92  2  0  0  0
 91 93  1  0  0  0
 93 90  1  0  0  0
 93 94  1  0  0  0
 90103  1  0  0  0
 90 86  1  0  0  0
103104  1  0  0  0
104105  1  0  0  0
105106  2  0  0  0
105107  1  0  0  0
107108  1  0  0  0
107109  1  0  0  0
 86 87  2  0  0  0
 86 88  1  0  0  0
 88 85  1  0  0  0
 88 89  1  0  0  0
 85110  1  0  0  0
 85 81  1  0  0  0
110111  1  0  0  0
111112  1  0  0  0
112113  2  0  0  0
112114  1  0  0  0
114115  1  0  0  0
114116  1  0  0  0
 81 82  2  0  0  0
 81 83  1  0  0  0
 83 79  1  0  0  0
 83 84  1  0  0  0
 79 80  1  0  0  0
 79 75  1  0  0  0
 75 76  2  0  0  0
 75 77  1  0  0  0
 77 74  1  0  0  0
 77 78  1  0  0  0
 74117  1  0  0  0
 74 70  1  0  0  0
117118  1  0  0  0
118119  1  0  0  0
 70 71  2  0  0  0
 70 72  1  0  0  0
 72 69  1  0  0  0
 72 73  1  0  0  0
 69120  1  0  0  0
 69 65  1  0  0  0
120121  1  0  0  0
121125  1  0  0  0
121122  2  0  0  0
122123  1  0  0  0
123124  2  0  0  0
124125  1  0  0  0
125126  1  0  0  0
 65 66  2  0  0  0
 65 67  1  0  0  0
 67  1  1  0  0  0
 67 68  1  0  0  0
  1  2  1  0  0  0
  1 10  1  0  0  0
  2  8  2  0  0  0
  2  3  1  0  0  0
  3  4  2  0  0  0
  4  5  1  0  0  0
  5  6  1  0  0  0
  5  7  2  0  0  0
  6  9  1  0  0  0
  7  8  1  0  0  0
 10 11  2  0  0  0
 10 12  1  0  0  0
 12 14  1  0  0  0
 12 13  1  0  0  0
 14 58  1  0  0  0
 14 15  1  0  0  0
 58 59  1  0  0  0
 59 60  1  0  0  0
 60 61  1  0  0  0
 61 62  1  0  0  0
 62 63  1  0  0  0
 62 64  1  0  0  0
 15 16  2  0  0  0
 15 17  1  0  0  0
 17 19  1  0  0  0
 17 18  1  0  0  0
 19 51  1  0  0  0
 19 20  1  0  0  0
 51 52  1  0  0  0
 52 53  1  0  0  0
 53 54  2  0  0  0
 53 55  1  0  0  0
 55 56  1  0  0  0
 55 57  1  0  0  0
 20 21  2  0  0  0
 20 22  1  0  0  0
 22 24  1  0  0  0
 22 23  1  0  0  0
 24 44  1  0  0  0
 24 25  1  0  0  0
 44 45  1  0  0  0
 45 49  1  0  0  0
 45 46  2  0  0  0
 46 47  1  0  0  0
 47 48  2  0  0  0
 48 49  1  0  0  0
 49 50  1  0  0  0
 25 26  2  0  0  0
 25 27  1  0  0  0
 27 29  1  0  0  0
 27 28  1  0  0  0
 29 41  1  0  0  0
 29 30  1  0  0  0
 41 42  1  0  0  0
 42 43  1  0  0  0
 30 31  2  0  0  0
 30 32  1  0  0  0
 32 36  1  0  0  0
 32 33  1  0  0  0
 33 34  1  0  0  0
 34 35  1  0  0  0
 35 36  1  0  0  0
 36 37  1  0  0  0
 37 38  1  0  0  0
 37 39  2  0  0  0
 38 40  1  0  0  0
 99100  1  0  0  0
 99101  1  0  0  0
100102  1  0  0  0
M  END
> <minimizedAffinity>
-4.13413

$$$$



126129  0  0  0  0  0  0  0  0999 V2000
   27.2604    8.8622    1.5302 C   0  0  0  0  0  0  0  0  0  0  0  0
   27.6992    9.1813    0.6903 C   0  0  0  0  0  0  0  0  0  0  0  0
   27.4505    8.7753   -0.1892 C   0  0  0  0  0  0  0  0  0  0  0  0
   27.8894    9.0945   -1.0292 C   0  0  0  0  0  0  0  0  0  0  0  0
   28.5769    9.8195   -0.9898 C   0  0  0  0  0  0  0  0  0  0  0  0
   29.0158   10.1386   -1.8297 O   0  0  0  0  0  0  0  0  0  0  0  0
   28.8257   10.2254   -0.1104 C   0  0  0  0  0  0  0  0  0  0  0  0
   28.3869    9.9063    0.7296 C   0  0  0  0  0  0  0  0  0  0  0  0
   28.7827    9.7583   -2.6537 H   0  0  0  0  0  0  0  0  0  0  0  0
   27.6211    8.0623    2.0100 C   0  0  0  0  0  0  0  0  0  0  0  0
   27.0433    7.2573    2.1443 O   0  0  0  0  0  0  0  0  0  0  0  0
   28.5595    8.0676    2.3554 N   0  0  0  0  0  0  0  0  0  0  0  0
   29.1283    8.8602    2.2232 H   0  0  0  0  0  0  0  0  0  0  0  0
   28.9202    7.2677    2.8352 C   0  0  0  0  0  0  0  0  0  0  0  0
   28.8465    7.2064    3.8306 C   0  0  0  0  0  0  0  0  0  0  0  0
   29.1655    7.9617    4.4031 O   0  0  0  0  0  0  0  0  0  0  0  0
   28.4537    6.3898    4.2535 N   0  0  0  0  0  0  0  0  0  0  0  0
   28.1396    5.6462    3.6899 H   0  0  0  0  0  0  0  0  0  0  0  0
   28.3800    6.3285    5.2489 C   0  0  0  0  0  0  0  0  0  0  0  0
   28.8911    5.6272    5.7458 C   0  0  0  0  0  0  0  0  0  0  0  0
   28.9260    4.6913    5.3954 O   0  0  0  0  0  0  0  0  0  0  0  0
   29.3674    5.8619    6.5933 N   0  0  0  0  0  0  0  0  0  0  0  0
   29.3330    6.7833    6.9383 H   0  0  0  0  0  0  0  0  0  0  0  0
   29.8785    5.1606    7.0903 C   0  0  0  0  0  0  0  0  0  0  0  0
   30.8699    5.0913    6.9789 C   0  0  0  0  0  0  0  0  0  0  0  0
   31.3177    4.1988    7.0311 O   0  0  0  0  0  0  0  0  0  0  0  0
   31.4134    5.9146    6.8153 N   0  0  0  0  0  0  0  0  0  0  0  0
   30.9725    6.7933    6.7638 H   0  0  0  0  0  0  0  0  0  0  0  0
   32.4047    5.8453    6.7039 C   0  0  0  0  0  0  0  0  0  0  0  0
   32.8016    5.7782    5.7885 C   0  0  0  0  0  0  0  0  0  0  0  0
   33.2271    4.9241    5.4894 O   0  0  0  0  0  0  0  0  0  0  0  0
   32.7729    6.5652    5.1721 N   0  0  0  0  0  0  0  0  0  0  0  0
   32.3719    7.4580    5.3772 C   0  0  0  0  0  0  0  0  0  0  0  0
   32.4914    8.0421    4.5743 C   0  0  0  0  0  0  0  0  0  0  0  0
   32.9661    7.5102    3.8731 C   0  0  0  0  0  0  0  0  0  0  0  0
   33.1401    6.5974    4.2426 C   0  0  0  0  0  0  0  0  0  0  0  0
   33.6005    5.8485    3.7662 C   0  0  0  0  0  0  0  0  0  0  0  0
   33.0631    5.1640    3.2734 O   0  0  0  0  0  0  0  0  0  0  0  0
   34.5983    5.7839    3.7824 O   0  0  0  0  0  0  0  0  0  0  0  0
   32.1282    5.2245    3.2582 H   0  0  0  0  0  0  0  0  0  0  0  0
   32.9993    5.8432    7.5080 C   0  0  0  0  0  0  0  0  0  0  0  0
   33.0006    6.6253    8.1311 S   0  0  0  0  0  0  0  0  0  0  0  0
   32.1936    7.6920    7.8849 H   0  0  0  0  0  0  0  0  0  0  0  0
   29.3983    4.5287    7.6986 C   0  0  0  0  0  0  0  0  0  0  0  0
   29.1861    4.8019    8.6368 C   0  0  0  0  0  0  0  0  0  0  0  0
   28.3361    5.2278    8.9470 C   0  0  0  0  0  0  0  0  0  0  0  0
   28.4112    5.3863    9.9314 N   0  0  0  0  0  0  0  0  0  0  0  0
   29.3076    5.0584   10.2298 C   0  0  0  0  0  0  0  0  0  0  0  0
   29.7865    4.6972    9.4296 N   0  0  0  0  0  0  0  0  0  0  0  0
   30.6903    4.3070    9.4235 H   0  0  0  0  0  0  0  0  0  0  0  0
   27.7951    6.9684    5.7473 C   0  0  0  0  0  0  0  0  0  0  0  0
   26.8246    6.7636    5.8746 C   0  0  0  0  0  0  0  0  0  0  0  0
   26.2858    7.2861    6.5354 C   0  0  0  0  0  0  0  0  0  0  0  0
   26.7456    7.8142    7.2494 O   0  0  0  0  0  0  0  0  0  0  0  0
   25.2873    7.2806    6.4822 N   0  0  0  0  0  0  0  0  0  0  0  0
   24.8347    6.7607    5.7793 H   0  0  0  0  0  0  0  0  0  0  0  0
   24.7568    7.7951    7.1327 H   0  0  0  0  0  0  0  0  0  0  0  0
   29.3547    6.5292    2.3196 C   0  0  0  0  0  0  0  0  0  0  0  0
   30.2212    6.6916    1.8476 C   0  0  0  0  0  0  0  0  0  0  0  0
   30.5122    6.0797    1.1121 C   0  0  0  0  0  0  0  0  0  0  0  0
   31.3261    6.2972    0.5733 C   0  0  0  0  0  0  0  0  0  0  0  0
   32.0228    5.5974    0.4154 N   0  0  0  0  0  0  0  0  0  0  0  0
   31.9033    4.6619    0.8038 H   0  0  0  0  0  0  0  0  0  0  0  0
   32.8530    5.8193   -0.1342 H   0  0  0  0  0  0  0  0  0  0  0  0
   26.5691   10.0117    2.6259 C   0  0  0  0  0  0  0  0  0  0  0  0
   27.4768   10.1999    3.0012 O   0  0  0  0  0  0  0  0  0  0  0  0
   26.4609    9.3429    1.8905 N   0  0  0  0  0  0  0  0  0  0  0  0
   25.5674    9.1576    1.5210 H   0  0  0  0  0  0  0  0  0  0  0  0
   25.7696   10.4924    2.9861 C   0  0  0  0  0  0  0  0  0  0  0  0
   24.4225    9.6362    3.6584 C   0  0  0  0  0  0  0  0  0  0  0  0
   24.8980    9.5771    4.5361 O   0  0  0  0  0  0  0  0  0  0  0  0
   24.8583   10.0939    2.8834 N   0  0  0  0  0  0  0  0  0  0  0  0
   24.3901   10.1521    2.0193 H   0  0  0  0  0  0  0  0  0  0  0  0
   23.5111    9.2376    3.5557 C   0  0  0  0  0  0  0  0  0  0  0  0
   22.0062   10.0941    3.5980 C   0  0  0  0  0  0  0  0  0  0  0  0
   21.9395    9.9283    4.5818 O   0  0  0  0  0  0  0  0  0  0  0  0
   22.7920    9.7487    3.0849 N   0  0  0  0  0  0  0  0  0  0  0  0
   22.8577    9.9119    2.1163 H   0  0  0  0  0  0  0  0  0  0  0  0
   21.2871   10.6051    3.1271 C   0  0  0  0  0  0  0  0  0  0  0  0
   20.8011   11.3381    3.6031 C   0  0  0  0  0  0  0  0  0  0  0  0
   21.1084   11.0886    1.4736 C   0  0  0  0  0  0  0  0  0  0  0  0
   21.3958   12.0158    1.7136 O   0  0  0  0  0  0  0  0  0  0  0  0
   21.0540   10.3832    2.1803 N   0  0  0  0  0  0  0  0  0  0  0  0
   20.7710    9.4704    1.9440 H   0  0  0  0  0  0  0  0  0  0  0  0
   20.8752   10.8667    0.5267 C   0  0  0  0  0  0  0  0  0  0  0  0
   22.1977   10.5778   -0.5538 C   0  0  0  0  0  0  0  0  0  0  0  0
   22.3362    9.6765   -0.1433 O   0  0  0  0  0  0  0  0  0  0  0  0
   21.4672   11.1729   -0.2188 N   0  0  0  0  0  0  0  0  0  0  0  0
   21.3308   12.0601   -0.6230 H   0  0  0  0  0  0  0  0  0  0  0  0
   22.7897   10.8839   -1.2994 C   0  0  0  0  0  0  0  0  0  0  0  0
   22.2526   10.6875   -2.9343 C   0  0  0  0  0  0  0  0  0  0  0  0
   22.5179    9.7238   -2.9057 O   0  0  0  0  0  0  0  0  0  0  0  0
   22.3884   11.2675   -2.1311 N   0  0  0  0  0  0  0  0  0  0  0  0
   22.1272   12.2164   -2.1592 H   0  0  0  0  0  0  0  0  0  0  0  0
   22.4340   11.2831   -4.5505 N   0  0  0  0  0  0  0  0  0  0  0  0
   21.8513   11.0712   -3.7660 C   0  0  0  0  0  0  0  0  0  0  0  0
   22.0248   11.6745   -5.3989 H   0  0  0  0  0  0  0  0  0  0  0  0
   23.4378   11.1079   -4.5023 H   0  0  0  0  0  0  0  0  0  0  0  0
   20.8673   11.2430   -3.8132 C   0  0  0  0  0  0  0  0  0  0  0  0
   20.2221   10.4855   -3.7135 O   0  0  0  0  0  0  0  0  0  0  0  0
   20.5285   12.1722   -3.9602 C   0  0  0  0  0  0  0  0  0  0  0  0
   20.5508    9.5840   -3.5709 H   0  0  0  0  0  0  0  0  0  0  0  0
   23.7829   10.8064   -1.2132 C   0  0  0  0  0  0  0  0  0  0  0  0
   24.3291   11.6116   -0.9822 C   0  0  0  0  0  0  0  0  0  0  0  0
   25.2729   11.6849   -1.3045 C   0  0  0  0  0  0  0  0  0  0  0  0
   25.5426   11.2518   -2.1646 O   0  0  0  0  0  0  0  0  0  0  0  0
   25.9470   12.1913   -0.7668 N   0  0  0  0  0  0  0  0  0  0  0  0
   25.6814   12.6177    0.0799 H   0  0  0  0  0  0  0  0  0  0  0  0
   26.8761   12.2635   -1.0841 H   0  0  0  0  0  0  0  0  0  0  0  0
   20.0502   10.3388    0.3255 C   0  0  0  0  0  0  0  0  0  0  0  0
   19.2473   10.7934   -0.0601 C   0  0  0  0  0  0  0  0  0  0  0  0
   18.5671   10.2629   -0.5659 C   0  0  0  0  0  0  0  0  0  0  0  0
   18.3542   10.4977   -1.5143 O   0  0  0  0  0  0  0  0  0  0  0  0
   18.0997    9.4976   -0.1232 N   0  0  0  0  0  0  0  0  0  0  0  0
   18.3093    9.2665    0.8105 H   0  0  0  0  0  0  0  0  0  0  0  0
   17.4300    8.9753   -0.6212 H   0  0  0  0  0  0  0  0  0  0  0  0
   23.3189    8.3280    3.9239 C   0  0  0  0  0  0  0  0  0  0  0  0
   23.8963    7.5527    3.6679 O   0  0  0  0  0  0  0  0  0  0  0  0
   23.7098    6.6703    4.0250 H   0  0  0  0  0  0  0  0  0  0  0  0
   25.8815   11.3718    3.4491 C   0  0  0  0  0  0  0  0  0  0  0  0
   25.7704   12.2239    2.9376 C   0  0  0  0  0  0  0  0  0  0  0  0
   24.9054   12.6048    2.6110 C   0  0  0  0  0  0  0  0  0  0  0  0
   25.1050   13.4610    2.1345 N   0  0  0  0  0  0  0  0  0  0  0  0
   26.0935   13.6092    2.1665 C   0  0  0  0  0  0  0  0  0  0  0  0
   26.5046   12.8446    2.6629 N   0  0  0  0  0  0  0  0  0  0  0  0
   27.4640   12.7241    2.8485 H   0  0  0  0  0  0  0  0  0  0  0  0
 95 96  1  0  0  0
 95 97  1  0  0  0
 95 98  1  0  0  0
 96 91  1  0  0  0
 96 99  1  0  0  0
 91 92  2  0  0  0
 91 93  1  0  0  0
 93 90  1  0  0  0
 93 94  1  0  0  0
 90103  1  0  0  0
 90 86  1  0  0  0
103104  1  0  0  0
104105  1  0  0  0
105106  2  0  0  0
105107  1  0  0  0
107108  1  0  0  0
107109  1  0  0  0
 86 87  2  0  0  0
 86 88  1  0  0  0
 88 85  1  0  0  0
 88 89  1  0  0  0
 85110  1  0  0  0
 85 81  1  0  0  0
110111  1  0  0  0
111112  1  0  0  0
112113  2  0  0  0
112114  1  0  0  0
114115  1  0  0  0
114116  1  0  0  0
 81 82  2  0  0  0
 81 83  1  0  0  0
 83 79  1  0  0  0
 83 84  1  0  0  0
 79 80  1  0  0  0
 79 75  1  0  0  0
 75 76  2  0  0  0
 75 77  1  0  0  0
 77 74  1  0  0  0
 77 78  1  0  0  0
 74117  1  0  0  0
 74 70  1  0  0  0
117118  1  0  0  0
118119  1  0  0  0
 70 71  2  0  0  0
 70 72  1  0  0  0
 72 69  1  0  0  0
 72 73  1  0  0  0
 69120  1  0  0  0
 69 65  1  0  0  0
120121  1  0  0  0
121125  1  0  0  0
121122  2  0  0  0
122123  1  0  0  0
123124  2  0  0  0
124125  1  0  0  0
125126  1  0  0  0
 65 66  2  0  0  0
 65 67  1  0  0  0
 67  1  1  0  0  0
 67 68  1  0  0  0
  1  2  1  0  0  0
  1 10  1  0  0  0
  2  8  2  0  0  0
  2  3  1  0  0  0
  3  4  2  0  0  0
  4  5  1  0  0  0
  5  6  1  0  0  0
  5  7  2  0  0  0
  6  9  1  0  0  0
  7  8  1  0  0  0
 10 11  2  0  0  0
 10 12  1  0  0  0
 12 14  1  0  0  0
 12 13  1  0  0  0
 14 58  1  0  0  0
 14 15  1  0  0  0
 58 59  1  0  0  0
 59 60  1  0  0  0
 60 61  1  0  0  0
 61 62  1  0  0  0
 62 63  1  0  0  0
 62 64  1  0  0  0
 15 16  2  0  0  0
 15 17  1  0  0  0
 17 19  1  0  0  0
 17 18  1  0  0  0
 19 51  1  0  0  0
 19 20  1  0  0  0
 51 52  1  0  0  0
 52 53  1  0  0  0
 53 54  2  0  0  0
 53 55  1  0  0  0
 55 56  1  0  0  0
 55 57  1  0  0  0
 20 21  2  0  0  0
 20 22  1  0  0  0
 22 24  1  0  0  0
 22 23  1  0  0  0
 24 44  1  0  0  0
 24 25  1  0  0  0
 44 45  1  0  0  0
 45 49  1  0  0  0
 45 46  2  0  0  0
 46 47  1  0  0  0
 47 48  2  0  0  0
 48 49  1  0  0  0
 49 50  1  0  0  0
 25 26  2  0  0  0
 25 27  1  0  0  0
 27 29  1  0  0  0
 27 28  1  0  0  0
 29 41  1  0  0  0
 29 30  1  0  0  0
 41 42  1  0  0  0
 42 43  1  0  0  0
 30 31  2  0  0  0
 30 32  1  0  0  0
 32 36  1  0  0  0
 32 33  1  0  0  0
 33 34  1  0  0  0
 34 35  1  0  0  0
 35 36  1  0  0  0
 36 37  1  0  0  0
 37 38  1  0  0  0
 37 39  2  0  0  0
 38 40  1  0  0  0
 99100  1  0  0  0
 99101  1  0  0  0
100102  1  0  0  0
M  END
> <minimizedAffinity>
-4.13132

$$$$



126129  0  0  0  0  0  0  0  0999 V2000
   36.1951    3.5814   -0.2603 C   0  0  0  0  0  0  0  0  0  0  0  0
   36.2566    3.5566    0.7375 C   0  0  0  0  0  0  0  0  0  0  0  0
   35.5942    3.0258    1.2662 C   0  0  0  0  0  0  0  0  0  0  0  0
   35.6557    3.0010    2.2641 C   0  0  0  0  0  0  0  0  0  0  0  0
   36.3795    3.5071    2.7332 C   0  0  0  0  0  0  0  0  0  0  0  0
   36.4409    3.4823    3.7310 O   0  0  0  0  0  0  0  0  0  0  0  0
   37.0418    4.0379    2.2045 C   0  0  0  0  0  0  0  0  0  0  0  0
   36.9804    4.0627    1.2067 C   0  0  0  0  0  0  0  0  0  0  0  0
   35.8203    2.9849    4.2264 H   0  0  0  0  0  0  0  0  0  0  0  0
   36.9237    3.1812   -0.8161 C   0  0  0  0  0  0  0  0  0  0  0  0
   36.8164    2.2617   -1.1942 O   0  0  0  0  0  0  0  0  0  0  0  0
   37.7595    3.7005   -0.9939 N   0  0  0  0  0  0  0  0  0  0  0  0
   37.8651    4.6058   -0.6217 H   0  0  0  0  0  0  0  0  0  0  0  0
   38.4882    3.3003   -1.5498 C   0  0  0  0  0  0  0  0  0  0  0  0
   38.5640    3.5350   -2.5189 C   0  0  0  0  0  0  0  0  0  0  0  0
   38.4278    4.4798   -2.8167 O   0  0  0  0  0  0  0  0  0  0  0  0
   38.7760    2.8248   -3.1903 N   0  0  0  0  0  0  0  0  0  0  0  0
   38.9101    1.8946   -2.8971 H   0  0  0  0  0  0  0  0  0  0  0  0
   38.8518    3.0595   -4.1593 C   0  0  0  0  0  0  0  0  0  0  0  0
   39.7490    3.2443   -4.5603 C   0  0  0  0  0  0  0  0  0  0  0  0
   39.8721    4.0263   -5.1713 O   0  0  0  0  0  0  0  0  0  0  0  0
   40.5231    2.6470   -4.3504 N   0  0  0  0  0  0  0  0  0  0  0  0
   40.4019    1.8771   -3.7490 H   0  0  0  0  0  0  0  0  0  0  0  0
   41.4204    2.8318   -4.7514 C   0  0  0  0  0  0  0  0  0  0  0  0
   41.7876    2.2249   -5.4562 C   0  0  0  0  0  0  0  0  0  0  0  0
   42.0812    1.2997   -5.2159 O   0  0  0  0  0  0  0  0  0  0  0  0
   41.8612    2.5432   -6.4013 N   0  0  0  0  0  0  0  0  0  0  0  0
   41.5722    3.4540   -6.6379 H   0  0  0  0  0  0  0  0  0  0  0  0
   42.2285    1.9362   -7.1061 C   0  0  0  0  0  0  0  0  0  0  0  0
   41.6415    1.6254   -7.8537 C   0  0  0  0  0  0  0  0  0  0  0  0
   41.2425    2.2899   -8.4855 O   0  0  0  0  0  0  0  0  0  0  0  0
   41.4536    0.6500   -7.9694 N   0  0  0  0  0  0  0  0  0  0  0  0
   41.8038   -0.0884   -7.3931 C   0  0  0  0  0  0  0  0  0  0  0  0
   41.4491   -0.9529   -7.7494 C   0  0  0  0  0  0  0  0  0  0  0  0
   40.8799   -0.7487   -8.5457 C   0  0  0  0  0  0  0  0  0  0  0  0
   40.8827    0.2419   -8.6818 C   0  0  0  0  0  0  0  0  0  0  0  0
   40.3993    0.7375   -9.4034 C   0  0  0  0  0  0  0  0  0  0  0  0
   39.4575    1.0403   -9.2575 O   0  0  0  0  0  0  0  0  0  0  0  0
   40.8578    0.9303  -10.2710 O   0  0  0  0  0  0  0  0  0  0  0  0
   39.0279    0.8596   -8.4446 H   0  0  0  0  0  0  0  0  0  0  0  0
   43.1827    1.6401   -7.0634 C   0  0  0  0  0  0  0  0  0  0  0  0
   43.9051    2.2267   -7.4296 S   0  0  0  0  0  0  0  0  0  0  0  0
   43.5899    3.4271   -7.9857 H   0  0  0  0  0  0  0  0  0  0  0  0
   41.9504    3.6235   -4.4476 C   0  0  0  0  0  0  0  0  0  0  0  0
   42.6729    3.5097   -3.7657 C   0  0  0  0  0  0  0  0  0  0  0  0
   43.5981    3.8850   -3.8214 C   0  0  0  0  0  0  0  0  0  0  0  0
   44.0941    3.6078   -2.9985 N   0  0  0  0  0  0  0  0  0  0  0  0
   43.4754    3.0613   -2.4341 C   0  0  0  0  0  0  0  0  0  0  0  0
   42.5970    3.0006   -2.9083 N   0  0  0  0  0  0  0  0  0  0  0  0
   41.7979    2.5235   -2.5873 H   0  0  0  0  0  0  0  0  0  0  0  0
   38.0303    3.1093   -4.7275 C   0  0  0  0  0  0  0  0  0  0  0  0
   37.5858    2.2693   -5.0386 C   0  0  0  0  0  0  0  0  0  0  0  0
   36.7074    2.3151   -5.5143 C   0  0  0  0  0  0  0  0  0  0  0  0
   36.2152    3.1837   -5.5729 O   0  0  0  0  0  0  0  0  0  0  0  0
   36.3213    1.4925   -5.9316 N   0  0  0  0  0  0  0  0  0  0  0  0
   36.8059    0.6375   -5.8739 H   0  0  0  0  0  0  0  0  0  0  0  0
   35.4565    1.5376   -6.4000 H   0  0  0  0  0  0  0  0  0  0  0  0
   39.1410    2.6655   -1.1366 C   0  0  0  0  0  0  0  0  0  0  0  0
   39.8926    3.0150   -0.5770 C   0  0  0  0  0  0  0  0  0  0  0  0
   40.4433    2.3849   -0.0295 C   0  0  0  0  0  0  0  0  0  0  0  0
   41.1021    2.7424    0.6324 C   0  0  0  0  0  0  0  0  0  0  0  0
   42.0733    2.5230    0.5395 N   0  0  0  0  0  0  0  0  0  0  0  0
   42.3920    1.9347   -0.2305 H   0  0  0  0  0  0  0  0  0  0  0  0
   42.7453    2.8876    1.2147 H   0  0  0  0  0  0  0  0  0  0  0  0
   35.4145    4.9845   -0.9098 C   0  0  0  0  0  0  0  0  0  0  0  0
   36.2140    5.5378   -0.6754 O   0  0  0  0  0  0  0  0  0  0  0  0
   35.4051    4.0064   -0.7022 N   0  0  0  0  0  0  0  0  0  0  0  0
   34.6181    3.4617   -0.9328 H   0  0  0  0  0  0  0  0  0  0  0  0
   34.6245    5.4095   -1.3517 C   0  0  0  0  0  0  0  0  0  0  0  0
   34.8435    5.7986   -3.0252 C   0  0  0  0  0  0  0  0  0  0  0  0
   34.7906    4.8275   -3.2579 O   0  0  0  0  0  0  0  0  0  0  0  0
   34.7604    6.0896   -2.0721 N   0  0  0  0  0  0  0  0  0  0  0  0
   34.8125    7.0456   -1.8429 H   0  0  0  0  0  0  0  0  0  0  0  0
   34.9794    6.4787   -3.7456 C   0  0  0  0  0  0  0  0  0  0  0  0
   36.4717    6.8388   -4.5475 C   0  0  0  0  0  0  0  0  0  0  0  0
   36.6617    7.5525   -3.8733 O   0  0  0  0  0  0  0  0  0  0  0  0
   35.6306    6.3019   -4.4836 N   0  0  0  0  0  0  0  0  0  0  0  0
   35.4434    5.5993   -5.1473 H   0  0  0  0  0  0  0  0  0  0  0  0
   37.1229    6.6621   -5.2856 C   0  0  0  0  0  0  0  0  0  0  0  0
   38.0642    6.9914   -5.2114 C   0  0  0  0  0  0  0  0  0  0  0  0
   36.7662    6.6221   -6.9800 C   0  0  0  0  0  0  0  0  0  0  0  0
   36.9897    7.5943   -7.0500 O   0  0  0  0  0  0  0  0  0  0  0  0
   36.8328    6.1560   -6.0978 N   0  0  0  0  0  0  0  0  0  0  0  0
   36.6127    5.1989   -6.0289 H   0  0  0  0  0  0  0  0  0  0  0  0
   36.4761    6.1160   -7.7923 C   0  0  0  0  0  0  0  0  0  0  0  0
   34.8786    5.4476   -7.8246 C   0  0  0  0  0  0  0  0  0  0  0  0
   34.5055    6.3496   -8.0416 O   0  0  0  0  0  0  0  0  0  0  0  0
   35.8638    5.3308   -7.6999 N   0  0  0  0  0  0  0  0  0  0  0  0
   36.2311    4.4427   -7.4863 H   0  0  0  0  0  0  0  0  0  0  0  0
   34.2663    4.6623   -7.7322 C   0  0  0  0  0  0  0  0  0  0  0  0
   34.0706    3.6179   -9.1000 C   0  0  0  0  0  0  0  0  0  0  0  0
   33.4560    4.2847   -9.5213 O   0  0  0  0  0  0  0  0  0  0  0  0
   34.4757    3.8067   -8.2054 N   0  0  0  0  0  0  0  0  0  0  0  0
   35.0808    3.1501   -7.7906 H   0  0  0  0  0  0  0  0  0  0  0  0
   33.6081    2.0216   -9.5882 N   0  0  0  0  0  0  0  0  0  0  0  0
   34.2800    2.7621   -9.5732 C   0  0  0  0  0  0  0  0  0  0  0  0
   33.8217    1.1488  -10.0708 H   0  0  0  0  0  0  0  0  0  0  0  0
   32.7091    2.1392   -9.1208 H   0  0  0  0  0  0  0  0  0  0  0  0
   35.1614    2.6469  -10.0314 C   0  0  0  0  0  0  0  0  0  0  0  0
   35.3788    3.1914  -10.8414 O   0  0  0  0  0  0  0  0  0  0  0  0
   35.8253    1.9871   -9.6794 C   0  0  0  0  0  0  0  0  0  0  0  0
   34.7347    3.8314  -11.1828 H   0  0  0  0  0  0  0  0  0  0  0  0
   33.4447    4.7327   -7.1666 C   0  0  0  0  0  0  0  0  0  0  0  0
   33.3728    4.2036   -6.3212 C   0  0  0  0  0  0  0  0  0  0  0  0
   32.6678    4.4289   -5.6487 C   0  0  0  0  0  0  0  0  0  0  0  0
   32.2450    5.3351   -5.6519 O   0  0  0  0  0  0  0  0  0  0  0  0
   32.3855    3.7479   -4.9730 N   0  0  0  0  0  0  0  0  0  0  0  0
   32.8017    2.8557   -4.9699 H   0  0  0  0  0  0  0  0  0  0  0  0
   31.6914    3.9697   -4.3109 H   0  0  0  0  0  0  0  0  0  0  0  0
   36.7982    6.3952   -8.6969 C   0  0  0  0  0  0  0  0  0  0  0  0
   37.4391    5.8157   -9.2002 C   0  0  0  0  0  0  0  0  0  0  0  0
   37.5654    5.9467  -10.1835 C   0  0  0  0  0  0  0  0  0  0  0  0
   36.8526    5.6568  -10.8222 O   0  0  0  0  0  0  0  0  0  0  0  0
   38.4045    6.3677  -10.5282 N   0  0  0  0  0  0  0  0  0  0  0  0
   39.1062    6.6531   -9.8994 H   0  0  0  0  0  0  0  0  0  0  0  0
   38.5288    6.4967  -11.4963 H   0  0  0  0  0  0  0  0  0  0  0  0
   34.4641    7.3355   -3.7279 C   0  0  0  0  0  0  0  0  0  0  0  0
   33.5238    7.3606   -4.0672 O   0  0  0  0  0  0  0  0  0  0  0  0
   33.0240    8.1918   -4.0501 H   0  0  0  0  0  0  0  0  0  0  0  0
   33.6985    5.1543   -1.0731 C   0  0  0  0  0  0  0  0  0  0  0  0
   33.0941    5.8368   -0.6621 C   0  0  0  0  0  0  0  0  0  0  0  0
   33.1663    6.2033    0.2654 C   0  0  0  0  0  0  0  0  0  0  0  0
   32.4281    6.8656    0.3943 N   0  0  0  0  0  0  0  0  0  0  0  0
   31.8997    6.9083   -0.4537 C   0  0  0  0  0  0  0  0  0  0  0  0
   32.3114    6.2724   -1.1065 N   0  0  0  0  0  0  0  0  0  0  0  0
   32.0006    6.1048   -2.0255 H   0  0  0  0  0  0  0  0  0  0  0  0
 95 96  1  0  0  0
 95 97  1  0  0  0
 95 98  1  0  0  0
 96 91  1  0  0  0
 96 99  1  0  0  0
 91 92  2  0  0  0
 91 93  1  0  0  0
 93 90  1  0  0  0
 93 94  1  0  0  0
 90103  1  0  0  0
 90 86  1  0  0  0
103104  1  0  0  0
104105  1  0  0  0
105106  2  0  0  0
105107  1  0  0  0
107108  1  0  0  0
107109  1  0  0  0
 86 87  2  0  0  0
 86 88  1  0  0  0
 88 85  1  0  0  0
 88 89  1  0  0  0
 85110  1  0  0  0
 85 81  1  0  0  0
110111  1  0  0  0
111112  1  0  0  0
112113  2  0  0  0
112114  1  0  0  0
114115  1  0  0  0
114116  1  0  0  0
 81 82  2  0  0  0
 81 83  1  0  0  0
 83 79  1  0  0  0
 83 84  1  0  0  0
 79 80  1  0  0  0
 79 75  1  0  0  0
 75 76  2  0  0  0
 75 77  1  0  0  0
 77 74  1  0  0  0
 77 78  1  0  0  0
 74117  1  0  0  0
 74 70  1  0  0  0
117118  1  0  0  0
118119  1  0  0  0
 70 71  2  0  0  0
 70 72  1  0  0  0
 72 69  1  0  0  0
 72 73  1  0  0  0
 69120  1  0  0  0
 69 65  1  0  0  0
120121  1  0  0  0
121125  1  0  0  0
121122  2  0  0  0
122123  1  0  0  0
123124  2  0  0  0
124125  1  0  0  0
125126  1  0  0  0
 65 66  2  0  0  0
 65 67  1  0  0  0
 67  1  1  0  0  0
 67 68  1  0  0  0
  1  2  1  0  0  0
  1 10  1  0  0  0
  2  8  2  0  0  0
  2  3  1  0  0  0
  3  4  2  0  0  0
  4  5  1  0  0  0
  5  6  1  0  0  0
  5  7  2  0  0  0
  6  9  1  0  0  0
  7  8  1  0  0  0
 10 11  2  0  0  0
 10 12  1  0  0  0
 12 14  1  0  0  0
 12 13  1  0  0  0
 14 58  1  0  0  0
 14 15  1  0  0  0
 58 59  1  0  0  0
 59 60  1  0  0  0
 60 61  1  0  0  0
 61 62  1  0  0  0
 62 63  1  0  0  0
 62 64  1  0  0  0
 15 16  2  0  0  0
 15 17  1  0  0  0
 17 19  1  0  0  0
 17 18  1  0  0  0
 19 51  1  0  0  0
 19 20  1  0  0  0
 51 52  1  0  0  0
 52 53  1  0  0  0
 53 54  2  0  0  0
 53 55  1  0  0  0
 55 56  1  0  0  0
 55 57  1  0  0  0
 20 21  2  0  0  0
 20 22  1  0  0  0
 22 24  1  0  0  0
 22 23  1  0  0  0
 24 44  1  0  0  0
 24 25  1  0  0  0
 44 45  1  0  0  0
 45 49  1  0  0  0
 45 46  2  0  0  0
 46 47  1  0  0  0
 47 48  2  0  0  0
 48 49  1  0  0  0
 49 50  1  0  0  0
 25 26  2  0  0  0
 25 27  1  0  0  0
 27 29  1  0  0  0
 27 28  1  0  0  0
 29 41  1  0  0  0
 29 30  1  0  0  0
 41 42  1  0  0  0
 42 43  1  0  0  0
 30 31  2  0  0  0
 30 32  1  0  0  0
 32 36  1  0  0  0
 32 33  1  0  0  0
 33 34  1  0  0  0
 34 35  1  0  0  0
 35 36  1  0  0  0
 36 37  1  0  0  0
 37 38  1  0  0  0
 37 39  2  0  0  0
 38 40  1  0  0  0
 99100  1  0  0  0
 99101  1  0  0  0
100102  1  0  0  0
M  END
> <minimizedAffinity>
-4.10752

$$$$
