


126129  0  0  0  0  0  0  0  0999 V2000
    0.5713    3.5485    6.7825 C   0  0  0  0  0  0  0  0  0  0  0  0
   -0.4048    3.6126    6.9900 C   0  0  0  0  0  0  0  0  0  0  0  0
   -1.0688    3.7045    6.2479 C   0  0  0  0  0  0  0  0  0  0  0  0
   -2.0449    3.7687    6.4555 C   0  0  0  0  0  0  0  0  0  0  0  0
   -2.3570    3.7410    7.4052 C   0  0  0  0  0  0  0  0  0  0  0  0
   -3.3331    3.8051    7.6127 O   0  0  0  0  0  0  0  0  0  0  0  0
   -1.6931    3.6491    8.1472 C   0  0  0  0  0  0  0  0  0  0  0  0
   -0.7170    3.5850    7.9397 C   0  0  0  0  0  0  0  0  0  0  0  0
   -3.9553    3.8912    6.9174 H   0  0  0  0  0  0  0  0  0  0  0  0
    0.9848    2.6578    6.5936 C   0  0  0  0  0  0  0  0  0  0  0  0
    1.7463    2.3312    7.1535 O   0  0  0  0  0  0  0  0  0  0  0  0
    0.6368    2.0937    5.8448 N   0  0  0  0  0  0  0  0  0  0  0  0
   -0.1128    2.4152    5.2936 H   0  0  0  0  0  0  0  0  0  0  0  0
    1.0503    1.2030    5.6559 C   0  0  0  0  0  0  0  0  0  0  0  0
    0.6096    0.3674    5.9840 C   0  0  0  0  0  0  0  0  0  0  0  0
    1.0954   -0.2407    6.6117 O   0  0  0  0  0  0  0  0  0  0  0  0
   -0.3169    0.1400    5.6843 N   0  0  0  0  0  0  0  0  0  0  0  0
   -0.7952    0.7388    5.0662 H   0  0  0  0  0  0  0  0  0  0  0  0
   -0.7576   -0.6955    6.0123 C   0  0  0  0  0  0  0  0  0  0  0  0
   -0.6801   -1.5417    5.4852 C   0  0  0  0  0  0  0  0  0  0  0  0
   -0.5158   -2.4096    5.9541 O   0  0  0  0  0  0  0  0  0  0  0  0
   -0.7669   -1.5201    4.4891 N   0  0  0  0  0  0  0  0  0  0  0  0
   -0.9287   -0.6657    4.0276 H   0  0  0  0  0  0  0  0  0  0  0  0
   -0.6894   -2.3664    3.9620 C   0  0  0  0  0  0  0  0  0  0  0  0
   -1.5134   -2.8632    3.6899 C   0  0  0  0  0  0  0  0  0  0  0  0
   -1.5089   -3.8628    3.6639 O   0  0  0  0  0  0  0  0  0  0  0  0
   -2.3421   -2.3604    3.4438 N   0  0  0  0  0  0  0  0  0  0  0  0
   -2.3465   -1.3762    3.4694 H   0  0  0  0  0  0  0  0  0  0  0  0
   -3.1661   -2.8572    3.1717 C   0  0  0  0  0  0  0  0  0  0  0  0
   -3.4085   -2.9319    2.2044 C   0  0  0  0  0  0  0  0  0  0  0  0
   -3.3617   -3.8185    1.7443 O   0  0  0  0  0  0  0  0  0  0  0  0
   -3.6976   -2.1199    1.6972 N   0  0  0  0  0  0  0  0  0  0  0  0
   -3.7761   -1.1937    2.0659 C   0  0  0  0  0  0  0  0  0  0  0  0
   -4.0860   -0.5930    1.3289 C   0  0  0  0  0  0  0  0  0  0  0  0
   -4.1988   -1.1480    0.5047 C   0  0  0  0  0  0  0  0  0  0  0  0
   -3.9588   -2.0917    0.7324 C   0  0  0  0  0  0  0  0  0  0  0  0
   -3.9768   -2.8704    0.1053 C   0  0  0  0  0  0  0  0  0  0  0  0
   -3.1849   -3.0647   -0.4735 O   0  0  0  0  0  0  0  0  0  0  0  0
   -4.7869   -3.4549    0.0571 O   0  0  0  0  0  0  0  0  0  0  0  0
   -2.4259   -2.5171   -0.4283 H   0  0  0  0  0  0  0  0  0  0  0  0
   -3.7480   -3.2794    3.8670 C   0  0  0  0  0  0  0  0  0  0  0  0
   -4.2376   -2.7065    4.5243 S   0  0  0  0  0  0  0  0  0  0  0  0
   -4.1123   -1.3533    4.4729 H   0  0  0  0  0  0  0  0  0  0  0  0
    0.2122   -2.7158    3.7070 C   0  0  0  0  0  0  0  0  0  0  0  0
    0.5947   -2.5036    2.8078 C   0  0  0  0  0  0  0  0  0  0  0  0
    0.8756   -1.5990    2.4870 C   0  0  0  0  0  0  0  0  0  0  0  0
    1.2179   -1.6950    1.5524 N   0  0  0  0  0  0  0  0  0  0  0  0
    1.1486   -2.6590    1.2954 C   0  0  0  0  0  0  0  0  0  0  0  0
    0.7634   -3.1587    2.0713 N   0  0  0  0  0  0  0  0  0  0  0  0
    0.5822   -4.1258    2.1043 H   0  0  0  0  0  0  0  0  0  0  0  0
   -1.2759   -0.6848    6.8675 C   0  0  0  0  0  0  0  0  0  0  0  0
   -2.1544   -0.2094    6.9138 C   0  0  0  0  0  0  0  0  0  0  0  0
   -2.7482   -0.3324    7.7090 C   0  0  0  0  0  0  0  0  0  0  0  0
   -2.8598   -1.2400    8.1140 O   0  0  0  0  0  0  0  0  0  0  0  0
   -3.2303    0.4519    8.0991 N   0  0  0  0  0  0  0  0  0  0  0  0
   -3.1204    1.3454    7.7004 H   0  0  0  0  0  0  0  0  0  0  0  0
   -3.8149    0.3308    8.8819 H   0  0  0  0  0  0  0  0  0  0  0  0
    1.9046    1.1478    5.1389 C   0  0  0  0  0  0  0  0  0  0  0  0
    1.8930    1.2379    4.1430 C   0  0  0  0  0  0  0  0  0  0  0  0
    2.6793    1.6323    3.6675 C   0  0  0  0  0  0  0  0  0  0  0  0
    2.5855    1.9488    2.7235 C   0  0  0  0  0  0  0  0  0  0  0  0
    2.5962    1.2896    1.9717 N   0  0  0  0  0  0  0  0  0  0  0  0
    2.7028    0.2942    2.1677 H   0  0  0  0  0  0  0  0  0  0  0  0
    2.5006    1.6124    1.0089 H   0  0  0  0  0  0  0  0  0  0  0  0
    1.2935    4.8518    5.8994 C   0  0  0  0  0  0  0  0  0  0  0  0
    0.8904    4.5021    5.0536 O   0  0  0  0  0  0  0  0  0  0  0  0
    1.1339    4.3750    6.7638 N   0  0  0  0  0  0  0  0  0  0  0  0
    1.5307    4.7193    7.5964 H   0  0  0  0  0  0  0  0  0  0  0  0
    1.8561    5.6783    5.8808 C   0  0  0  0  0  0  0  0  0  0  0  0
    3.5729    5.5026    6.0281 C   0  0  0  0  0  0  0  0  0  0  0  0
    3.6267    5.2240    5.0692 O   0  0  0  0  0  0  0  0  0  0  0  0
    2.6876    5.7298    6.4339 N   0  0  0  0  0  0  0  0  0  0  0  0
    2.6346    6.0041    7.3779 H   0  0  0  0  0  0  0  0  0  0  0  0
    4.4044    5.5541    6.5812 C   0  0  0  0  0  0  0  0  0  0  0  0
    4.7221    4.5805    7.9780 C   0  0  0  0  0  0  0  0  0  0  0  0
    5.1365    3.8808    7.3960 O   0  0  0  0  0  0  0  0  0  0  0  0
    4.3560    5.4171    7.5706 N   0  0  0  0  0  0  0  0  0  0  0  0
    3.9481    6.1060    8.1435 H   0  0  0  0  0  0  0  0  0  0  0  0
    4.6738    4.4435    8.9674 C   0  0  0  0  0  0  0  0  0  0  0  0
    5.4925    4.5620    9.5292 C   0  0  0  0  0  0  0  0  0  0  0  0
    3.4103    4.7681   10.1067 C   0  0  0  0  0  0  0  0  0  0  0  0
    3.8809    5.6035   10.3907 O   0  0  0  0  0  0  0  0  0  0  0  0
    3.8067    4.1882    9.3950 N   0  0  0  0  0  0  0  0  0  0  0  0
    3.3433    3.3658    9.1154 H   0  0  0  0  0  0  0  0  0  0  0  0
    2.5431    4.5128   10.5344 C   0  0  0  0  0  0  0  0  0  0  0  0
    2.3593    3.2987   11.7560 C   0  0  0  0  0  0  0  0  0  0  0  0
    2.5150    3.9876   12.4640 O   0  0  0  0  0  0  0  0  0  0  0  0
    2.3734    3.5613   10.7913 N   0  0  0  0  0  0  0  0  0  0  0  0
    2.2201    2.8832   10.0942 H   0  0  0  0  0  0  0  0  0  0  0  0
    2.1896    2.3473   12.0129 C   0  0  0  0  0  0  0  0  0  0  0  0
    0.9056    1.4198   11.3121 C   0  0  0  0  0  0  0  0  0  0  0  0
    0.2667    1.7981   11.9819 O   0  0  0  0  0  0  0  0  0  0  0  0
    1.8670    1.6943   11.3276 N   0  0  0  0  0  0  0  0  0  0  0  0
    2.4961    1.3218   10.6682 H   0  0  0  0  0  0  0  0  0  0  0  0
    0.6883    0.9706    9.6535 N   0  0  0  0  0  0  0  0  0  0  0  0
    0.5831    0.7667   10.6268 C   0  0  0  0  0  0  0  0  0  0  0  0
    0.3594    0.3046    8.9545 H   0  0  0  0  0  0  0  0  0  0  0  0
    1.1245    1.8446    9.3597 H   0  0  0  0  0  0  0  0  0  0  0  0
    0.1554   -0.0901   10.9148 C   0  0  0  0  0  0  0  0  0  0  0  0
    0.6993   -0.7891   11.3790 O   0  0  0  0  0  0  0  0  0  0  0  0
   -0.8162   -0.2478   10.7386 C   0  0  0  0  0  0  0  0  0  0  0  0
    1.6418   -0.6360   11.5499 H   0  0  0  0  0  0  0  0  0  0  0  0
    2.3424    2.0488   12.9549 C   0  0  0  0  0  0  0  0  0  0  0  0
    3.2064    1.6134   13.2075 C   0  0  0  0  0  0  0  0  0  0  0  0
    3.2663    1.0695   14.0446 C   0  0  0  0  0  0  0  0  0  0  0  0
    2.6094    0.3342   14.2112 O   0  0  0  0  0  0  0  0  0  0  0  0
    3.9832    1.2609   14.7150 N   0  0  0  0  0  0  0  0  0  0  0  0
    4.6299    1.9848   14.5509 H   0  0  0  0  0  0  0  0  0  0  0  0
    4.0421    0.7255   15.5390 H   0  0  0  0  0  0  0  0  0  0  0  0
    1.8458    5.2088   10.7053 C   0  0  0  0  0  0  0  0  0  0  0  0
    1.1825    5.4375    9.9927 C   0  0  0  0  0  0  0  0  0  0  0  0
    0.5264    6.1778   10.1394 C   0  0  0  0  0  0  0  0  0  0  0  0
    0.0713    6.2746   11.0245 O   0  0  0  0  0  0  0  0  0  0  0  0
    0.3254    6.8214    9.4008 N   0  0  0  0  0  0  0  0  0  0  0  0
    0.7735    6.7261    8.5293 H   0  0  0  0  0  0  0  0  0  0  0  0
   -0.3205    7.5502    9.5452 H   0  0  0  0  0  0  0  0  0  0  0  0
    5.2842    5.7425    6.1449 C   0  0  0  0  0  0  0  0  0  0  0  0
    5.6417    6.6762    6.1229 O   0  0  0  0  0  0  0  0  0  0  0  0
    6.4952    6.8589    5.6997 H   0  0  0  0  0  0  0  0  0  0  0  0
    1.5871    6.4534    5.3089 C   0  0  0  0  0  0  0  0  0  0  0  0
    1.0524    7.2021    5.7007 C   0  0  0  0  0  0  0  0  0  0  0  0
    1.4148    7.9685    6.2311 C   0  0  0  0  0  0  0  0  0  0  0  0
    0.6476    8.5559    6.4892 N   0  0  0  0  0  0  0  0  0  0  0  0
   -0.1889    8.1524    6.1183 C   0  0  0  0  0  0  0  0  0  0  0  0
    0.0613    7.3158    5.6310 N   0  0  0  0  0  0  0  0  0  0  0  0
   -0.5592    6.7103    5.1645 H   0  0  0  0  0  0  0  0  0  0  0  0
 95 96  1  0  0  0
 95 97  1  0  0  0
 95 98  1  0  0  0
 96 91  1  0  0  0
 96 99  1  0  0  0
 91 92  2  0  0  0
 91 93  1  0  0  0
 93 90  1  0  0  0
 93 94  1  0  0  0
 90103  1  0  0  0
 90 86  1  0  0  0
103104  1  0  0  0
104105  1  0  0  0
105106  2  0  0  0
105107  1  0  0  0
107108  1  0  0  0
107109  1  0  0  0
 86 87  2  0  0  0
 86 88  1  0  0  0
 88 85  1  0  0  0
 88 89  1  0  0  0
 85110  1  0  0  0
 85 81  1  0  0  0
110111  1  0  0  0
111112  1  0  0  0
112113  2  0  0  0
112114  1  0  0  0
114115  1  0  0  0
114116  1  0  0  0
 81 82  2  0  0  0
 81 83  1  0  0  0
 83 79  1  0  0  0
 83 84  1  0  0  0
 79 80  1  0  0  0
 79 75  1  0  0  0
 75 76  2  0  0  0
 75 77  1  0  0  0
 77 74  1  0  0  0
 77 78  1  0  0  0
 74117  1  0  0  0
 74 70  1  0  0  0
117118  1  0  0  0
118119  1  0  0  0
 70 71  2  0  0  0
 70 72  1  0  0  0
 72 69  1  0  0  0
 72 73  1  0  0  0
 69120  1  0  0  0
 69 65  1  0  0  0
120121  1  0  0  0
121125  1  0  0  0
121122  2  0  0  0
122123  1  0  0  0
123124  2  0  0  0
124125  1  0  0  0
125126  1  0  0  0
 65 66  2  0  0  0
 65 67  1  0  0  0
 67  1  1  0  0  0
 67 68  1  0  0  0
  1  2  1  0  0  0
  1 10  1  0  0  0
  2  8  2  0  0  0
  2  3  1  0  0  0
  3  4  2  0  0  0
  4  5  1  0  0  0
  5  6  1  0  0  0
  5  7  2  0  0  0
  6  9  1  0  0  0
  7  8  1  0  0  0
 10 11  2  0  0  0
 10 12  1  0  0  0
 12 14  1  0  0  0
 12 13  1  0  0  0
 14 58  1  0  0  0
 14 15  1  0  0  0
 58 59  1  0  0  0
 59 60  1  0  0  0
 60 61  1  0  0  0
 61 62  1  0  0  0
 62 63  1  0  0  0
 62 64  1  0  0  0
 15 16  2  0  0  0
 15 17  1  0  0  0
 17 19  1  0  0  0
 17 18  1  0  0  0
 19 51  1  0  0  0
 19 20  1  0  0  0
 51 52  1  0  0  0
 52 53  1  0  0  0
 53 54  2  0  0  0
 53 55  1  0  0  0
 55 56  1  0  0  0
 55 57  1  0  0  0
 20 21  2  0  0  0
 20 22  1  0  0  0
 22 24  1  0  0  0
 22 23  1  0  0  0
 24 44  1  0  0  0
 24 25  1  0  0  0
 44 45  1  0  0  0
 45 49  1  0  0  0
 45 46  2  0  0  0
 46 47  1  0  0  0
 47 48  2  0  0  0
 48 49  1  0  0  0
 49 50  1  0  0  0
 25 26  2  0  0  0
 25 27  1  0  0  0
 27 29  1  0  0  0
 27 28  1  0  0  0
 29 41  1  0  0  0
 29 30  1  0  0  0
 41 42  1  0  0  0
 42 43  1  0  0  0
 30 31  2  0  0  0
 30 32  1  0  0  0
 32 36  1  0  0  0
 32 33  1  0  0  0
 33 34  1  0  0  0
 34 35  1  0  0  0
 35 36  1  0  0  0
 36 37  1  0  0  0
 37 38  1  0  0  0
 37 39  2  0  0  0
 38 40  1  0  0  0
 99100  1  0  0  0
 99101  1  0  0  0
100102  1  0  0  0
M  END
> <minimizedAffinity>
-5.36722

$$$$



126129  0  0  0  0  0  0  0  0999 V2000
   30.4192    3.0527   18.2317 C   0  0  0  0  0  0  0  0  0  0  0  0
   29.8886    3.8608   17.9761 C   0  0  0  0  0  0  0  0  0  0  0  0
   30.3199    4.7631   17.9770 C   0  0  0  0  0  0  0  0  0  0  0  0
   29.7891    5.5712   17.7214 C   0  0  0  0  0  0  0  0  0  0  0  0
   28.8271    5.4771   17.4651 C   0  0  0  0  0  0  0  0  0  0  0  0
   28.2965    6.2852   17.2095 O   0  0  0  0  0  0  0  0  0  0  0  0
   28.3958    4.5749   17.4642 C   0  0  0  0  0  0  0  0  0  0  0  0
   28.9265    3.7668   17.7198 C   0  0  0  0  0  0  0  0  0  0  0  0
   28.7006    7.1306   17.2103 H   0  0  0  0  0  0  0  0  0  0  0  0
   31.0182    2.6153   17.5610 C   0  0  0  0  0  0  0  0  0  0  0  0
   31.9140    3.0106   17.3576 O   0  0  0  0  0  0  0  0  0  0  0  0
   30.7214    1.7826   17.0936 N   0  0  0  0  0  0  0  0  0  0  0  0
   29.8395    1.3934   17.2938 H   0  0  0  0  0  0  0  0  0  0  0  0
   31.3203    1.3451   16.4228 C   0  0  0  0  0  0  0  0  0  0  0  0
   31.2369    1.5747   15.4531 C   0  0  0  0  0  0  0  0  0  0  0  0
   30.3550    1.8657   15.0823 O   0  0  0  0  0  0  0  0  0  0  0  0
   32.0354    1.5132   14.8542 N   0  0  0  0  0  0  0  0  0  0  0  0
   32.9036    1.2267   15.2193 H   0  0  0  0  0  0  0  0  0  0  0  0
   31.9520    1.7428   13.8845 C   0  0  0  0  0  0  0  0  0  0  0  0
   32.3947    2.5643   13.5254 C   0  0  0  0  0  0  0  0  0  0  0  0
   33.3912    2.6444   13.5448 O   0  0  0  0  0  0  0  0  0  0  0  0
   31.8407    3.3059   13.1467 N   0  0  0  0  0  0  0  0  0  0  0  0
   30.8596    3.2270   13.1275 H   0  0  0  0  0  0  0  0  0  0  0  0
   32.2834    4.1275   12.7875 C   0  0  0  0  0  0  0  0  0  0  0  0
   32.3958    4.2440   11.8007 C   0  0  0  0  0  0  0  0  0  0  0  0
   31.5917    4.2958   11.2086 O   0  0  0  0  0  0  0  0  0  0  0  0
   33.3124    4.3089   11.4061 N   0  0  0  0  0  0  0  0  0  0  0  0
   34.1040    4.2579   11.9891 H   0  0  0  0  0  0  0  0  0  0  0  0
   33.4248    4.4254   10.4193 C   0  0  0  0  0  0  0  0  0  0  0  0
   33.6584    3.6398    9.8464 C   0  0  0  0  0  0  0  0  0  0  0  0
   33.0413    3.3547    9.1130 O   0  0  0  0  0  0  0  0  0  0  0  0
   34.5091    3.1392   10.0069 N   0  0  0  0  0  0  0  0  0  0  0  0
   35.1883    3.3452   10.7114 C   0  0  0  0  0  0  0  0  0  0  0  0
   35.9289    2.6781   10.6309 C   0  0  0  0  0  0  0  0  0  0  0  0
   35.7075    2.0599    9.8768 C   0  0  0  0  0  0  0  0  0  0  0  0
   34.8300    2.3449    9.4911 C   0  0  0  0  0  0  0  0  0  0  0  0
   34.3565    1.9117    8.7243 C   0  0  0  0  0  0  0  0  0  0  0  0
   33.7928    1.1003    8.8787 O   0  0  0  0  0  0  0  0  0  0  0  0
   34.4468    2.2898    7.8029 O   0  0  0  0  0  0  0  0  0  0  0  0
   33.7082    0.7460    9.7420 H   0  0  0  0  0  0  0  0  0  0  0  0
   33.3036    5.3277   10.0053 C   0  0  0  0  0  0  0  0  0  0  0  0
   34.0249    6.0156   10.0857 S   0  0  0  0  0  0  0  0  0  0  0  0
   35.1707    5.7243   10.7579 H   0  0  0  0  0  0  0  0  0  0  0  0
   32.6137    4.8325   13.4151 C   0  0  0  0  0  0  0  0  0  0  0  0
   31.9937    5.5503   13.7317 C   0  0  0  0  0  0  0  0  0  0  0  0
   31.3872    5.4954   14.5250 C   0  0  0  0  0  0  0  0  0  0  0  0
   30.8900    6.3602   14.5942 N   0  0  0  0  0  0  0  0  0  0  0  0
   31.1891    6.9497   13.8438 C   0  0  0  0  0  0  0  0  0  0  0  0
   31.8713    6.4490   13.3108 N   0  0  0  0  0  0  0  0  0  0  0  0
   32.3400    6.7826   12.5118 H   0  0  0  0  0  0  0  0  0  0  0  0
   31.4258    1.1508   13.2740 C   0  0  0  0  0  0  0  0  0  0  0  0
   31.8861    0.4264   12.7608 C   0  0  0  0  0  0  0  0  0  0  0  0
   31.4794    0.0753   11.9174 C   0  0  0  0  0  0  0  0  0  0  0  0
   30.5921   -0.3851   11.9440 O   0  0  0  0  0  0  0  0  0  0  0  0
   31.9601    0.1846   11.0473 N   0  0  0  0  0  0  0  0  0  0  0  0
   32.8337    0.6379   11.0212 H   0  0  0  0  0  0  0  0  0  0  0  0
   31.5598   -0.1610   10.2170 H   0  0  0  0  0  0  0  0  0  0  0  0
   32.0027    0.6780   16.7218 C   0  0  0  0  0  0  0  0  0  0  0  0
   31.7218   -0.2513   16.9618 C   0  0  0  0  0  0  0  0  0  0  0  0
   32.2297   -0.7640   17.6541 C   0  0  0  0  0  0  0  0  0  0  0  0
   32.4117   -1.7383   17.5212 C   0  0  0  0  0  0  0  0  0  0  0  0
   32.8622   -2.2655   18.2416 N   0  0  0  0  0  0  0  0  0  0  0  0
   33.1360   -1.8096   19.1120 H   0  0  0  0  0  0  0  0  0  0  0  0
   33.0479   -3.2593   18.1061 H   0  0  0  0  0  0  0  0  0  0  0  0
   31.0979    2.8205   19.8082 C   0  0  0  0  0  0  0  0  0  0  0  0
   31.9132    3.3296   19.5322 O   0  0  0  0  0  0  0  0  0  0  0  0
   30.3510    2.6821   19.1579 N   0  0  0  0  0  0  0  0  0  0  0  0
   29.5484    2.1808   19.4296 H   0  0  0  0  0  0  0  0  0  0  0  0
   31.0296    2.4498   20.7344 C   0  0  0  0  0  0  0  0  0  0  0  0
   31.7807    0.9484   21.1607 C   0  0  0  0  0  0  0  0  0  0  0  0
   30.9937    0.4511   20.7957 O   0  0  0  0  0  0  0  0  0  0  0  0
   31.7987    1.9478   21.1300 N   0  0  0  0  0  0  0  0  0  0  0  0
   32.5735    2.4374   21.4893 H   0  0  0  0  0  0  0  0  0  0  0  0
   32.5498    0.4464   21.5562 C   0  0  0  0  0  0  0  0  0  0  0  0
   33.9836   -0.2625   20.8917 C   0  0  0  0  0  0  0  0  0  0  0  0
   33.5856   -1.1730   21.0043 O   0  0  0  0  0  0  0  0  0  0  0  0
   33.4656    0.5472   21.1676 N   0  0  0  0  0  0  0  0  0  0  0  0
   33.8573    1.4435   21.0567 H   0  0  0  0  0  0  0  0  0  0  0  0
   34.8994   -0.1617   20.5030 C   0  0  0  0  0  0  0  0  0  0  0  0
   35.6870   -0.0334   21.1057 C   0  0  0  0  0  0  0  0  0  0  0  0
   35.5936    0.5013   19.0614 C   0  0  0  0  0  0  0  0  0  0  0  0
   36.0312    1.2195   19.6024 O   0  0  0  0  0  0  0  0  0  0  0  0
   35.0277   -0.1893   19.5117 N   0  0  0  0  0  0  0  0  0  0  0  0
   34.5969   -0.8964   18.9791 H   0  0  0  0  0  0  0  0  0  0  0  0
   35.7220    0.4738   18.0700 C   0  0  0  0  0  0  0  0  0  0  0  0
   36.5800   -0.8129   17.2901 C   0  0  0  0  0  0  0  0  0  0  0  0
   37.4453   -0.3455   17.4711 O   0  0  0  0  0  0  0  0  0  0  0  0
   35.7183   -0.4032   17.5895 N   0  0  0  0  0  0  0  0  0  0  0  0
   34.8664   -0.8633   17.4114 H   0  0  0  0  0  0  0  0  0  0  0  0
   36.5763   -1.6899   16.8096 C   0  0  0  0  0  0  0  0  0  0  0  0
   36.4944   -1.7900   15.0824 C   0  0  0  0  0  0  0  0  0  0  0  0
   35.4981   -1.7158   15.1253 O   0  0  0  0  0  0  0  0  0  0  0  0
   37.0335   -1.7771   15.9246 N   0  0  0  0  0  0  0  0  0  0  0  0
   38.0144   -1.8501   15.8823 H   0  0  0  0  0  0  0  0  0  0  0  0
   37.0357   -1.0815   13.5975 N   0  0  0  0  0  0  0  0  0  0  0  0
   36.9517   -1.8772   14.1973 C   0  0  0  0  0  0  0  0  0  0  0  0
   37.5021   -1.1703   12.6947 H   0  0  0  0  0  0  0  0  0  0  0  0
   36.6550   -0.1810   13.8884 H   0  0  0  0  0  0  0  0  0  0  0  0
   37.3249   -2.7600   13.9121 C   0  0  0  0  0  0  0  0  0  0  0  0
   36.7153   -3.5420   13.7818 O   0  0  0  0  0  0  0  0  0  0  0  0
   38.3076   -2.8608   13.7572 C   0  0  0  0  0  0  0  0  0  0  0  0
   35.7620   -3.4441   13.9321 H   0  0  0  0  0  0  0  0  0  0  0  0
   36.1154   -2.4797   17.2142 C   0  0  0  0  0  0  0  0  0  0  0  0
   36.6287   -3.1186   17.7873 C   0  0  0  0  0  0  0  0  0  0  0  0
   36.1446   -3.7193   18.4237 C   0  0  0  0  0  0  0  0  0  0  0  0
   35.5740   -3.3275   19.1453 O   0  0  0  0  0  0  0  0  0  0  0  0
   36.2313   -4.7119   18.3383 N   0  0  0  0  0  0  0  0  0  0  0  0
   36.7930   -5.0976   17.6278 H   0  0  0  0  0  0  0  0  0  0  0  0
   35.7548   -5.3033   18.9647 H   0  0  0  0  0  0  0  0  0  0  0  0
   35.8540    1.3232   17.5591 C   0  0  0  0  0  0  0  0  0  0  0  0
   35.1045    1.7015   17.0158 C   0  0  0  0  0  0  0  0  0  0  0  0
   35.2888    2.4099   16.3346 C   0  0  0  0  0  0  0  0  0  0  0  0
   36.0418    2.2965   15.6863 O   0  0  0  0  0  0  0  0  0  0  0  0
   34.7202    3.2319   16.3015 N   0  0  0  0  0  0  0  0  0  0  0  0
   33.9789    3.3437   16.9397 H   0  0  0  0  0  0  0  0  0  0  0  0
   34.9017    3.9294   15.6307 H   0  0  0  0  0  0  0  0  0  0  0  0
   32.4029   -0.1565   22.3405 C   0  0  0  0  0  0  0  0  0  0  0  0
   32.1668    0.2310   23.2316 O   0  0  0  0  0  0  0  0  0  0  0  0
   32.0244   -0.3539   23.9924 H   0  0  0  0  0  0  0  0  0  0  0  0
   30.1922    2.5812   21.2651 C   0  0  0  0  0  0  0  0  0  0  0  0
   30.2017    3.1629   22.0784 C   0  0  0  0  0  0  0  0  0  0  0  0
   30.1567    4.1619   22.0870 C   0  0  0  0  0  0  0  0  0  0  0  0
   30.1851    4.4643   23.0398 N   0  0  0  0  0  0  0  0  0  0  0  0
   30.2477    3.6521   23.6200 C   0  0  0  0  0  0  0  0  0  0  0  0
   30.2580    2.8479   23.0257 N   0  0  0  0  0  0  0  0  0  0  0  0
   30.3138    1.9106   23.3215 H   0  0  0  0  0  0  0  0  0  0  0  0
 95 96  1  0  0  0
 95 97  1  0  0  0
 95 98  1  0  0  0
 96 91  1  0  0  0
 96 99  1  0  0  0
 91 92  2  0  0  0
 91 93  1  0  0  0
 93 90  1  0  0  0
 93 94  1  0  0  0
 90103  1  0  0  0
 90 86  1  0  0  0
103104  1  0  0  0
104105  1  0  0  0
105106  2  0  0  0
105107  1  0  0  0
107108  1  0  0  0
107109  1  0  0  0
 86 87  2  0  0  0
 86 88  1  0  0  0
 88 85  1  0  0  0
 88 89  1  0  0  0
 85110  1  0  0  0
 85 81  1  0  0  0
110111  1  0  0  0
111112  1  0  0  0
112113  2  0  0  0
112114  1  0  0  0
114115  1  0  0  0
114116  1  0  0  0
 81 82  2  0  0  0
 81 83  1  0  0  0
 83 79  1  0  0  0
 83 84  1  0  0  0
 79 80  1  0  0  0
 79 75  1  0  0  0
 75 76  2  0  0  0
 75 77  1  0  0  0
 77 74  1  0  0  0
 77 78  1  0  0  0
 74117  1  0  0  0
 74 70  1  0  0  0
117118  1  0  0  0
118119  1  0  0  0
 70 71  2  0  0  0
 70 72  1  0  0  0
 72 69  1  0  0  0
 72 73  1  0  0  0
 69120  1  0  0  0
 69 65  1  0  0  0
120121  1  0  0  0
121125  1  0  0  0
121122  2  0  0  0
122123  1  0  0  0
123124  2  0  0  0
124125  1  0  0  0
125126  1  0  0  0
 65 66  2  0  0  0
 65 67  1  0  0  0
 67  1  1  0  0  0
 67 68  1  0  0  0
  1  2  1  0  0  0
  1 10  1  0  0  0
  2  8  2  0  0  0
  2  3  1  0  0  0
  3  4  2  0  0  0
  4  5  1  0  0  0
  5  6  1  0  0  0
  5  7  2  0  0  0
  6  9  1  0  0  0
  7  8  1  0  0  0
 10 11  2  0  0  0
 10 12  1  0  0  0
 12 14  1  0  0  0
 12 13  1  0  0  0
 14 58  1  0  0  0
 14 15  1  0  0  0
 58 59  1  0  0  0
 59 60  1  0  0  0
 60 61  1  0  0  0
 61 62  1  0  0  0
 62 63  1  0  0  0
 62 64  1  0  0  0
 15 16  2  0  0  0
 15 17  1  0  0  0
 17 19  1  0  0  0
 17 18  1  0  0  0
 19 51  1  0  0  0
 19 20  1  0  0  0
 51 52  1  0  0  0
 52 53  1  0  0  0
 53 54  2  0  0  0
 53 55  1  0  0  0
 55 56  1  0  0  0
 55 57  1  0  0  0
 20 21  2  0  0  0
 20 22  1  0  0  0
 22 24  1  0  0  0
 22 23  1  0  0  0
 24 44  1  0  0  0
 24 25  1  0  0  0
 44 45  1  0  0  0
 45 49  1  0  0  0
 45 46  2  0  0  0
 46 47  1  0  0  0
 47 48  2  0  0  0
 48 49  1  0  0  0
 49 50  1  0  0  0
 25 26  2  0  0  0
 25 27  1  0  0  0
 27 29  1  0  0  0
 27 28  1  0  0  0
 29 41  1  0  0  0
 29 30  1  0  0  0
 41 42  1  0  0  0
 42 43  1  0  0  0
 30 31  2  0  0  0
 30 32  1  0  0  0
 32 36  1  0  0  0
 32 33  1  0  0  0
 33 34  1  0  0  0
 34 35  1  0  0  0
 35 36  1  0  0  0
 36 37  1  0  0  0
 37 38  1  0  0  0
 37 39  2  0  0  0
 38 40  1  0  0  0
 99100  1  0  0  0
 99101  1  0  0  0
100102  1  0  0  0
M  END
> <minimizedAffinity>
-5.27024

$$$$



126129  0  0  0  0  0  0  0  0999 V2000
   -2.4765   -1.1270    2.0416 C   0  0  0  0  0  0  0  0  0  0  0  0
   -3.3262   -1.5352    1.7080 C   0  0  0  0  0  0  0  0  0  0  0  0
   -3.5030   -1.5889    0.7252 C   0  0  0  0  0  0  0  0  0  0  0  0
   -4.3527   -1.9972    0.3915 C   0  0  0  0  0  0  0  0  0  0  0  0
   -5.0257   -2.3518    1.0407 C   0  0  0  0  0  0  0  0  0  0  0  0
   -5.8753   -2.7601    0.7070 O   0  0  0  0  0  0  0  0  0  0  0  0
   -4.8489   -2.2982    2.0235 C   0  0  0  0  0  0  0  0  0  0  0  0
   -3.9992   -1.8899    2.3571 C   0  0  0  0  0  0  0  0  0  0  0  0
   -6.0410   -2.8104   -0.2138 H   0  0  0  0  0  0  0  0  0  0  0  0
   -1.7570   -1.7092    2.4201 C   0  0  0  0  0  0  0  0  0  0  0  0
   -1.9986   -2.5225    2.9493 O   0  0  0  0  0  0  0  0  0  0  0  0
   -0.7958   -1.4781    2.2693 N   0  0  0  0  0  0  0  0  0  0  0  0
   -0.5580   -0.6773    1.7482 H   0  0  0  0  0  0  0  0  0  0  0  0
   -0.0762   -2.0603    2.6477 C   0  0  0  0  0  0  0  0  0  0  0  0
    0.3838   -1.7990    3.4963 C   0  0  0  0  0  0  0  0  0  0  0  0
    0.9440   -2.4661    3.9873 O   0  0  0  0  0  0  0  0  0  0  0  0
    0.2837   -0.8705    3.8538 N   0  0  0  0  0  0  0  0  0  0  0  0
   -0.2678   -0.2137    3.3704 H   0  0  0  0  0  0  0  0  0  0  0  0
    0.7437   -0.6091    4.7024 C   0  0  0  0  0  0  0  0  0  0  0  0
    0.2860   -0.7436    5.5812 C   0  0  0  0  0  0  0  0  0  0  0  0
    0.8114   -1.0408    6.3784 O   0  0  0  0  0  0  0  0  0  0  0  0
   -0.6974   -0.5810    5.6628 N   0  0  0  0  0  0  0  0  0  0  0  0
   -1.2148   -0.2884    4.8780 H   0  0  0  0  0  0  0  0  0  0  0  0
   -1.1552   -0.7155    6.5416 C   0  0  0  0  0  0  0  0  0  0  0  0
   -1.4038    0.0746    7.1020 C   0  0  0  0  0  0  0  0  0  0  0  0
   -2.1319    0.6910    6.8022 O   0  0  0  0  0  0  0  0  0  0  0  0
   -0.9242    0.2483    7.9621 N   0  0  0  0  0  0  0  0  0  0  0  0
   -0.2074   -0.3586    8.2572 H   0  0  0  0  0  0  0  0  0  0  0  0
   -1.1728    1.0383    8.5225 C   0  0  0  0  0  0  0  0  0  0  0  0
   -1.6564    0.9055    9.3876 C   0  0  0  0  0  0  0  0  0  0  0  0
   -2.5952    1.2339    9.4912 O   0  0  0  0  0  0  0  0  0  0  0  0
   -1.2011    0.4441   10.1492 N   0  0  0  0  0  0  0  0  0  0  0  0
   -0.2691    0.0817   10.1443 C   0  0  0  0  0  0  0  0  0  0  0  0
   -0.0900   -0.3221   11.0414 C   0  0  0  0  0  0  0  0  0  0  0  0
   -0.9112   -0.2092   11.6007 C   0  0  0  0  0  0  0  0  0  0  0  0
   -1.5979    0.2643   11.0493 C   0  0  0  0  0  0  0  0  0  0  0  0
   -2.5196    0.5142   11.3459 C   0  0  0  0  0  0  0  0  0  0  0  0
   -3.2770   -0.1261   11.2178 O   0  0  0  0  0  0  0  0  0  0  0  0
   -2.6841    1.4046   11.7706 O   0  0  0  0  0  0  0  0  0  0  0  0
   -3.1229   -0.9603   10.8198 H   0  0  0  0  0  0  0  0  0  0  0  0
   -0.9378    1.9614    8.2177 C   0  0  0  0  0  0  0  0  0  0  0  0
    0.0086    2.2798    8.2712 S   0  0  0  0  0  0  0  0  0  0  0  0
    0.9762    1.4576    8.7585 H   0  0  0  0  0  0  0  0  0  0  0  0
   -1.3644   -1.6400    6.8601 C   0  0  0  0  0  0  0  0  0  0  0  0
   -2.1323   -2.1435    6.4640 C   0  0  0  0  0  0  0  0  0  0  0  0
   -2.1872   -3.1351    6.3468 C   0  0  0  0  0  0  0  0  0  0  0  0
   -3.0689   -3.3482    5.9260 N   0  0  0  0  0  0  0  0  0  0  0  0
   -3.5590   -2.4883    5.7831 C   0  0  0  0  0  0  0  0  0  0  0  0
   -2.9801   -1.7438    6.1157 N   0  0  0  0  0  0  0  0  0  0  0  0
   -3.2054   -0.7855    6.1023 H   0  0  0  0  0  0  0  0  0  0  0  0
    1.6616   -0.2133    4.6721 C   0  0  0  0  0  0  0  0  0  0  0  0
    1.8075    0.7334    4.9593 C   0  0  0  0  0  0  0  0  0  0  0  0
    2.5847    1.2505    4.6007 C   0  0  0  0  0  0  0  0  0  0  0  0
    2.7878    1.2333    3.6217 O   0  0  0  0  0  0  0  0  0  0  0  0
    3.1588    1.7848    5.2212 N   0  0  0  0  0  0  0  0  0  0  0  0
    2.9588    1.8017    6.1850 H   0  0  0  0  0  0  0  0  0  0  0  0
    3.9239    2.2939    4.8682 H   0  0  0  0  0  0  0  0  0  0  0  0
    0.1834   -2.9039    2.1776 C   0  0  0  0  0  0  0  0  0  0  0  0
    0.7323   -2.8624    1.3427 C   0  0  0  0  0  0  0  0  0  0  0  0
    1.1110   -3.7010    0.9512 C   0  0  0  0  0  0  0  0  0  0  0  0
    1.9253   -3.6592    0.3721 C   0  0  0  0  0  0  0  0  0  0  0  0
    1.8316   -3.6640   -0.6235 N   0  0  0  0  0  0  0  0  0  0  0  0
    0.9055   -3.7115   -1.0483 H   0  0  0  0  0  0  0  0  0  0  0  0
    2.6620   -3.6213   -1.2141 H   0  0  0  0  0  0  0  0  0  0  0  0
   -2.5916    0.4359    2.7792 C   0  0  0  0  0  0  0  0  0  0  0  0
   -2.9669    0.0179    3.6066 O   0  0  0  0  0  0  0  0  0  0  0  0
   -2.3464   -0.1365    1.9968 N   0  0  0  0  0  0  0  0  0  0  0  0
   -1.9769    0.2750    1.1824 H   0  0  0  0  0  0  0  0  0  0  0  0
   -2.4614    1.4264    2.7344 C   0  0  0  0  0  0  0  0  0  0  0  0
   -0.8671    2.0926    2.8541 C   0  0  0  0  0  0  0  0  0  0  0  0
   -0.9044    2.0032    3.8494 O   0  0  0  0  0  0  0  0  0  0  0  0
   -1.6456    1.8042    2.2966 N   0  0  0  0  0  0  0  0  0  0  0  0
   -1.6089    1.8922    1.3167 H   0  0  0  0  0  0  0  0  0  0  0  0
   -0.0513    2.4704    2.4163 C   0  0  0  0  0  0  0  0  0  0  0  0
    0.5499    4.0946    2.4386 C   0  0  0  0  0  0  0  0  0  0  0  0
    0.1116    4.2689    1.5569 O   0  0  0  0  0  0  0  0  0  0  0  0
    0.4684    3.1954    2.8683 N   0  0  0  0  0  0  0  0  0  0  0  0
    0.8999    3.0237    3.7364 H   0  0  0  0  0  0  0  0  0  0  0  0
    1.0696    4.8196    2.8906 C   0  0  0  0  0  0  0  0  0  0  0  0
    0.6091    5.4494    3.5161 C   0  0  0  0  0  0  0  0  0  0  0  0
    2.5864    5.5824    3.2332 C   0  0  0  0  0  0  0  0  0  0  0  0
    2.1427    6.1551    3.9225 O   0  0  0  0  0  0  0  0  0  0  0  0
    2.0499    4.9146    2.7173 N   0  0  0  0  0  0  0  0  0  0  0  0
    2.4867    4.3508    2.0386 H   0  0  0  0  0  0  0  0  0  0  0  0
    3.5667    5.6775    3.0598 C   0  0  0  0  0  0  0  0  0  0  0  0
    4.6648    4.9996    4.2151 C   0  0  0  0  0  0  0  0  0  0  0  0
    4.4952    4.0878    3.8413 O   0  0  0  0  0  0  0  0  0  0  0  0
    4.2006    5.7945    3.8243 N   0  0  0  0  0  0  0  0  0  0  0  0
    4.3676    6.6922    4.1923 H   0  0  0  0  0  0  0  0  0  0  0  0
    5.2987    5.1167    4.9796 C   0  0  0  0  0  0  0  0  0  0  0  0
    4.7946    5.0286    6.6343 C   0  0  0  0  0  0  0  0  0  0  0  0
    4.5437    5.9963    6.6095 O   0  0  0  0  0  0  0  0  0  0  0  0
    5.1721    4.5888    5.8194 N   0  0  0  0  0  0  0  0  0  0  0  0
    5.4191    3.6361    5.8439 H   0  0  0  0  0  0  0  0  0  0  0  0
    5.4634    4.1983    7.9994 N   0  0  0  0  0  0  0  0  0  0  0  0
    4.6680    4.5006    7.4742 C   0  0  0  0  0  0  0  0  0  0  0  0
    5.3344    3.6598    8.8560 H   0  0  0  0  0  0  0  0  0  0  0  0
    6.4039    4.4285    7.6785 H   0  0  0  0  0  0  0  0  0  0  0  0
    3.7460    4.2750    7.7887 C   0  0  0  0  0  0  0  0  0  0  0  0
    3.0443    4.0062    7.1288 O   0  0  0  0  0  0  0  0  0  0  0  0
    3.5256    4.3181    8.7632 C   0  0  0  0  0  0  0  0  0  0  0  0
    3.2581    3.9644    6.1836 H   0  0  0  0  0  0  0  0  0  0  0  0
    6.0592    5.7616    4.9043 C   0  0  0  0  0  0  0  0  0  0  0  0
    6.9214    5.4716    4.4890 C   0  0  0  0  0  0  0  0  0  0  0  0
    7.7699    5.9523    4.7107 C   0  0  0  0  0  0  0  0  0  0  0  0
    8.2661    5.7296    5.5499 O   0  0  0  0  0  0  0  0  0  0  0  0
    8.1221    6.6557    4.0933 N   0  0  0  0  0  0  0  0  0  0  0  0
    7.6335    6.8748    3.2671 H   0  0  0  0  0  0  0  0  0  0  0  0
    8.9573    7.1289    4.3115 H   0  0  0  0  0  0  0  0  0  0  0  0
    3.9131    5.6555    2.1220 C   0  0  0  0  0  0  0  0  0  0  0  0
    4.2444    6.4951    1.6916 C   0  0  0  0  0  0  0  0  0  0  0  0
    4.8623    6.4446    0.9070 C   0  0  0  0  0  0  0  0  0  0  0  0
    5.8476    6.3537    1.0515 O   0  0  0  0  0  0  0  0  0  0  0  0
    4.4948    6.4849   -0.0222 N   0  0  0  0  0  0  0  0  0  0  0  0
    3.5248    6.5744   -0.1645 H   0  0  0  0  0  0  0  0  0  0  0  0
    5.1032    6.4352   -0.7947 H   0  0  0  0  0  0  0  0  0  0  0  0
    0.2447    2.1233    1.5264 C   0  0  0  0  0  0  0  0  0  0  0  0
    0.7068    1.2387    1.4634 O   0  0  0  0  0  0  0  0  0  0  0  0
    0.9940    0.9020    0.6001 H   0  0  0  0  0  0  0  0  0  0  0  0
   -3.1472    2.0391    3.1275 C   0  0  0  0  0  0  0  0  0  0  0  0
   -3.7975    2.5099    2.5313 C   0  0  0  0  0  0  0  0  0  0  0  0
   -3.7389    3.4628    2.2340 C   0  0  0  0  0  0  0  0  0  0  0  0
   -4.5258    3.6523    1.6466 N   0  0  0  0  0  0  0  0  0  0  0  0
   -5.0707    2.8163    1.5809 C   0  0  0  0  0  0  0  0  0  0  0  0
   -4.6205    2.1103    2.1277 N   0  0  0  0  0  0  0  0  0  0  0  0
   -4.9329    1.1844    2.2475 H   0  0  0  0  0  0  0  0  0  0  0  0
 95 96  1  0  0  0
 95 97  1  0  0  0
 95 98  1  0  0  0
 96 91  1  0  0  0
 96 99  1  0  0  0
 91 92  2  0  0  0
 91 93  1  0  0  0
 93 90  1  0  0  0
 93 94  1  0  0  0
 90103  1  0  0  0
 90 86  1  0  0  0
103104  1  0  0  0
104105  1  0  0  0
105106  2  0  0  0
105107  1  0  0  0
107108  1  0  0  0
107109  1  0  0  0
 86 87  2  0  0  0
 86 88  1  0  0  0
 88 85  1  0  0  0
 88 89  1  0  0  0
 85110  1  0  0  0
 85 81  1  0  0  0
110111  1  0  0  0
111112  1  0  0  0
112113  2  0  0  0
112114  1  0  0  0
114115  1  0  0  0
114116  1  0  0  0
 81 82  2  0  0  0
 81 83  1  0  0  0
 83 79  1  0  0  0
 83 84  1  0  0  0
 79 80  1  0  0  0
 79 75  1  0  0  0
 75 76  2  0  0  0
 75 77  1  0  0  0
 77 74  1  0  0  0
 77 78  1  0  0  0
 74117  1  0  0  0
 74 70  1  0  0  0
117118  1  0  0  0
118119  1  0  0  0
 70 71  2  0  0  0
 70 72  1  0  0  0
 72 69  1  0  0  0
 72 73  1  0  0  0
 69120  1  0  0  0
 69 65  1  0  0  0
120121  1  0  0  0
121125  1  0  0  0
121122  2  0  0  0
122123  1  0  0  0
123124  2  0  0  0
124125  1  0  0  0
125126  1  0  0  0
 65 66  2  0  0  0
 65 67  1  0  0  0
 67  1  1  0  0  0
 67 68  1  0  0  0
  1  2  1  0  0  0
  1 10  1  0  0  0
  2  8  2  0  0  0
  2  3  1  0  0  0
  3  4  2  0  0  0
  4  5  1  0  0  0
  5  6  1  0  0  0
  5  7  2  0  0  0
  6  9  1  0  0  0
  7  8  1  0  0  0
 10 11  2  0  0  0
 10 12  1  0  0  0
 12 14  1  0  0  0
 12 13  1  0  0  0
 14 58  1  0  0  0
 14 15  1  0  0  0
 58 59  1  0  0  0
 59 60  1  0  0  0
 60 61  1  0  0  0
 61 62  1  0  0  0
 62 63  1  0  0  0
 62 64  1  0  0  0
 15 16  2  0  0  0
 15 17  1  0  0  0
 17 19  1  0  0  0
 17 18  1  0  0  0
 19 51  1  0  0  0
 19 20  1  0  0  0
 51 52  1  0  0  0
 52 53  1  0  0  0
 53 54  2  0  0  0
 53 55  1  0  0  0
 55 56  1  0  0  0
 55 57  1  0  0  0
 20 21  2  0  0  0
 20 22  1  0  0  0
 22 24  1  0  0  0
 22 23  1  0  0  0
 24 44  1  0  0  0
 24 25  1  0  0  0
 44 45  1  0  0  0
 45 49  1  0  0  0
 45 46  2  0  0  0
 46 47  1  0  0  0
 47 48  2  0  0  0
 48 49  1  0  0  0
 49 50  1  0  0  0
 25 26  2  0  0  0
 25 27  1  0  0  0
 27 29  1  0  0  0
 27 28  1  0  0  0
 29 41  1  0  0  0
 29 30  1  0  0  0
 41 42  1  0  0  0
 42 43  1  0  0  0
 30 31  2  0  0  0
 30 32  1  0  0  0
 32 36  1  0  0  0
 32 33  1  0  0  0
 33 34  1  0  0  0
 34 35  1  0  0  0
 35 36  1  0  0  0
 36 37  1  0  0  0
 37 38  1  0  0  0
 37 39  2  0  0  0
 38 40  1  0  0  0
 99100  1  0  0  0
 99101  1  0  0  0
100102  1  0  0  0
M  END
> <minimizedAffinity>
-5.21351

$$$$



126129  0  0  0  0  0  0  0  0999 V2000
    1.9146    1.0347    3.7234 C   0  0  0  0  0  0  0  0  0  0  0  0
    1.3720    0.5138    3.0644 C   0  0  0  0  0  0  0  0  0  0  0  0
    1.7981   -0.2193    2.5343 C   0  0  0  0  0  0  0  0  0  0  0  0
    1.2554   -0.7401    1.8752 C   0  0  0  0  0  0  0  0  0  0  0  0
    0.2867   -0.5279    1.7464 C   0  0  0  0  0  0  0  0  0  0  0  0
   -0.2559   -1.0487    1.0874 O   0  0  0  0  0  0  0  0  0  0  0  0
   -0.1393    0.2052    2.2765 C   0  0  0  0  0  0  0  0  0  0  0  0
    0.4032    0.7261    2.9355 C   0  0  0  0  0  0  0  0  0  0  0  0
    0.1433   -1.7356    0.5906 H   0  0  0  0  0  0  0  0  0  0  0  0
    1.8963    0.7878    4.6922 C   0  0  0  0  0  0  0  0  0  0  0  0
    2.5677    0.1424    5.0565 O   0  0  0  0  0  0  0  0  0  0  0  0
    1.2066    1.1863    5.2968 N   0  0  0  0  0  0  0  0  0  0  0  0
    0.5456    1.8217    4.9381 H   0  0  0  0  0  0  0  0  0  0  0  0
    1.1883    0.9394    6.2657 C   0  0  0  0  0  0  0  0  0  0  0  0
    0.6185    0.1790    6.5773 C   0  0  0  0  0  0  0  0  0  0  0  0
    0.8903   -0.3537    7.3787 O   0  0  0  0  0  0  0  0  0  0  0  0
   -0.2230   -0.0488    6.0874 N   0  0  0  0  0  0  0  0  0  0  0  0
   -0.4905    0.4757    5.2984 H   0  0  0  0  0  0  0  0  0  0  0  0
   -0.7927   -0.8092    6.3989 C   0  0  0  0  0  0  0  0  0  0  0  0
   -1.5551   -0.6396    7.0234 C   0  0  0  0  0  0  0  0  0  0  0  0
   -2.1468    0.1547    6.8859 O   0  0  0  0  0  0  0  0  0  0  0  0
   -1.7259   -1.2645    7.7853 N   0  0  0  0  0  0  0  0  0  0  0  0
   -1.1434   -2.0465    7.9206 H   0  0  0  0  0  0  0  0  0  0  0  0
   -2.4883   -1.0949    8.4097 C   0  0  0  0  0  0  0  0  0  0  0  0
   -2.3305   -0.6149    9.2726 C   0  0  0  0  0  0  0  0  0  0  0  0
   -2.9792    0.0794    9.5844 O   0  0  0  0  0  0  0  0  0  0  0  0
   -1.5241   -0.8291    9.8238 N   0  0  0  0  0  0  0  0  0  0  0  0
   -0.8855   -1.5126    9.5168 H   0  0  0  0  0  0  0  0  0  0  0  0
   -1.3663   -0.3490   10.6867 C   0  0  0  0  0  0  0  0  0  0  0  0
   -0.4344   -0.1222   10.9696 C   0  0  0  0  0  0  0  0  0  0  0  0
    0.1353   -0.8132   11.4144 O   0  0  0  0  0  0  0  0  0  0  0  0
   -0.0721    0.7958   10.8075 N   0  0  0  0  0  0  0  0  0  0  0  0
   -0.5606    1.5521   10.3724 C   0  0  0  0  0  0  0  0  0  0  0  0
    0.0519    2.3422   10.3482 C   0  0  0  0  0  0  0  0  0  0  0  0
    0.9188    2.0742   10.7683 C   0  0  0  0  0  0  0  0  0  0  0  0
    0.8422    1.1184   11.0522 C   0  0  0  0  0  0  0  0  0  0  0  0
    1.5548    0.5799   11.5018 C   0  0  0  0  0  0  0  0  0  0  0  0
    1.6996    0.6660   12.4875 O   0  0  0  0  0  0  0  0  0  0  0  0
    2.1226   -0.0448   10.9657 O   0  0  0  0  0  0  0  0  0  0  0  0
    1.1676    1.2514   12.9898 H   0  0  0  0  0  0  0  0  0  0  0  0
   -2.1405   -0.0958   11.2669 C   0  0  0  0  0  0  0  0  0  0  0  0
   -2.3456   -0.6287   12.0878 S   0  0  0  0  0  0  0  0  0  0  0  0
   -1.5717   -1.6980   12.4153 H   0  0  0  0  0  0  0  0  0  0  0  0
   -3.4085   -1.4054    8.1713 C   0  0  0  0  0  0  0  0  0  0  0  0
   -3.6794   -2.3510    8.3510 C   0  0  0  0  0  0  0  0  0  0  0  0
   -3.5381   -3.1294    7.7393 C   0  0  0  0  0  0  0  0  0  0  0  0
   -3.9105   -3.9438    8.1843 N   0  0  0  0  0  0  0  0  0  0  0  0
   -4.2820   -3.6688    9.0711 C   0  0  0  0  0  0  0  0  0  0  0  0
   -4.1392   -2.6844    9.1741 N   0  0  0  0  0  0  0  0  0  0  0  0
   -4.4046   -2.1392    9.9498 H   0  0  0  0  0  0  0  0  0  0  0  0
   -0.6001   -1.7393    6.0860 C   0  0  0  0  0  0  0  0  0  0  0  0
   -0.8621   -2.0206    5.1629 C   0  0  0  0  0  0  0  0  0  0  0  0
   -0.6351   -2.9381    4.8364 C   0  0  0  0  0  0  0  0  0  0  0  0
   -0.3813   -3.0798    3.8795 O   0  0  0  0  0  0  0  0  0  0  0  0
   -0.6619   -3.7140    5.4668 N   0  0  0  0  0  0  0  0  0  0  0  0
   -0.9118   -3.5744    6.4088 H   0  0  0  0  0  0  0  0  0  0  0  0
   -0.4384   -4.6173    5.1454 H   0  0  0  0  0  0  0  0  0  0  0  0
    1.7397    1.4531    6.9231 C   0  0  0  0  0  0  0  0  0  0  0  0
    1.7222    2.4530    6.9170 C   0  0  0  0  0  0  0  0  0  0  0  0
    2.0273    2.9632    7.7211 C   0  0  0  0  0  0  0  0  0  0  0  0
    2.8935    3.4623    7.6977 C   0  0  0  0  0  0  0  0  0  0  0  0
    3.0687    4.1912    8.3595 N   0  0  0  0  0  0  0  0  0  0  0  0
    2.3639    4.4256    9.0585 H   0  0  0  0  0  0  0  0  0  0  0  0
    3.9523    4.7002    8.3355 H   0  0  0  0  0  0  0  0  0  0  0  0
    2.0685    2.7102    3.3125 C   0  0  0  0  0  0  0  0  0  0  0  0
    1.1006    2.8504    3.5214 O   0  0  0  0  0  0  0  0  0  0  0  0
    2.4755    1.8024    3.4135 N   0  0  0  0  0  0  0  0  0  0  0  0
    3.4283    1.6644    3.2079 H   0  0  0  0  0  0  0  0  0  0  0  0
    2.6294    3.4780    3.0027 C   0  0  0  0  0  0  0  0  0  0  0  0
    3.0265    4.7208    4.1418 C   0  0  0  0  0  0  0  0  0  0  0  0
    3.7337    4.1337    4.5358 O   0  0  0  0  0  0  0  0  0  0  0  0
    2.4744    4.3929    3.3752 N   0  0  0  0  0  0  0  0  0  0  0  0
    1.7781    4.9708    2.9874 H   0  0  0  0  0  0  0  0  0  0  0  0
    2.8715    5.6357    4.5144 C   0  0  0  0  0  0  0  0  0  0  0  0
    1.8086    6.2822    5.7195 C   0  0  0  0  0  0  0  0  0  0  0  0
    2.5807    6.3819    6.3470 O   0  0  0  0  0  0  0  0  0  0  0  0
    1.9540    5.9091    4.8032 N   0  0  0  0  0  0  0  0  0  0  0  0
    1.1938    5.8110    4.1853 H   0  0  0  0  0  0  0  0  0  0  0  0
    0.8911    6.5556    6.0082 C   0  0  0  0  0  0  0  0  0  0  0  0
    0.6077    7.5117    5.9339 C   0  0  0  0  0  0  0  0  0  0  0  0
   -0.7272    5.9793    6.2295 C   0  0  0  0  0  0  0  0  0  0  0  0
   -1.0772    6.7683    5.7245 O   0  0  0  0  0  0  0  0  0  0  0  0
    0.2570    5.8730    6.3713 N   0  0  0  0  0  0  0  0  0  0  0  0
    0.6016    5.0962    6.8684 H   0  0  0  0  0  0  0  0  0  0  0  0
   -1.3614    5.2966    6.5926 C   0  0  0  0  0  0  0  0  0  0  0  0
   -1.8744    3.8975    5.7099 C   0  0  0  0  0  0  0  0  0  0  0  0
   -1.0779    3.3941    6.0449 O   0  0  0  0  0  0  0  0  0  0  0  0
   -2.0162    4.8487    5.9838 N   0  0  0  0  0  0  0  0  0  0  0  0
   -2.8003    5.3443    5.6540 H   0  0  0  0  0  0  0  0  0  0  0  0
   -2.5292    3.4495    5.1011 C   0  0  0  0  0  0  0  0  0  0  0  0
   -4.0215    2.8437    5.7383 C   0  0  0  0  0  0  0  0  0  0  0  0
   -4.4092    3.7650    5.7064 O   0  0  0  0  0  0  0  0  0  0  0  0
   -3.0816    2.6860    5.4356 N   0  0  0  0  0  0  0  0  0  0  0  0
   -2.6999    1.7790    5.4670 H   0  0  0  0  0  0  0  0  0  0  0  0
   -4.8342    1.3413    5.4512 N   0  0  0  0  0  0  0  0  0  0  0  0
   -4.5739    2.0801    6.0728 C   0  0  0  0  0  0  0  0  0  0  0  0
   -5.3975    0.5624    5.7923 H   0  0  0  0  0  0  0  0  0  0  0  0
   -4.5364    1.3666    4.4759 H   0  0  0  0  0  0  0  0  0  0  0  0
   -4.8659    2.0553    7.0289 C   0  0  0  0  0  0  0  0  0  0  0  0
   -4.1841    2.0666    7.7604 O   0  0  0  0  0  0  0  0  0  0  0  0
   -5.8396    2.0192    7.2535 C   0  0  0  0  0  0  0  0  0  0  0  0
   -3.2395    2.1016    7.5424 H   0  0  0  0  0  0  0  0  0  0  0  0
   -2.6317    3.7652    4.1578 C   0  0  0  0  0  0  0  0  0  0  0  0
   -2.0929    3.3438    3.4283 C   0  0  0  0  0  0  0  0  0  0  0  0
   -2.1905    3.6639    2.4859 C   0  0  0  0  0  0  0  0  0  0  0  0
   -3.1010    3.8108    2.0994 O   0  0  0  0  0  0  0  0  0  0  0  0
   -1.3774    3.8372    1.9301 N   0  0  0  0  0  0  0  0  0  0  0  0
   -0.4811    3.6926    2.3106 H   0  0  0  0  0  0  0  0  0  0  0  0
   -1.4734    4.1523    1.0024 H   0  0  0  0  0  0  0  0  0  0  0  0
   -1.3408    5.0619    7.5644 C   0  0  0  0  0  0  0  0  0  0  0  0
   -1.9865    5.4907    8.1961 C   0  0  0  0  0  0  0  0  0  0  0  0
   -2.1556    5.0812    9.0926 C   0  0  0  0  0  0  0  0  0  0  0  0
   -2.7259    4.2634    9.1692 O   0  0  0  0  0  0  0  0  0  0  0  0
   -1.7544    5.4896    9.9126 N   0  0  0  0  0  0  0  0  0  0  0  0
   -1.1929    6.2947    9.8371 H   0  0  0  0  0  0  0  0  0  0  0  0
   -1.9209    5.0864   10.7952 H   0  0  0  0  0  0  0  0  0  0  0  0
    3.6340    6.2772    4.5982 C   0  0  0  0  0  0  0  0  0  0  0  0
    4.0173    6.7078    3.7811 O   0  0  0  0  0  0  0  0  0  0  0  0
    4.7570    7.3301    3.8625 H   0  0  0  0  0  0  0  0  0  0  0  0
    3.3454    3.3307    2.3201 C   0  0  0  0  0  0  0  0  0  0  0  0
    3.3040    3.8062    1.4414 C   0  0  0  0  0  0  0  0  0  0  0  0
    2.5169    3.8352    0.8253 C   0  0  0  0  0  0  0  0  0  0  0  0
    2.7688    4.3832    0.0276 N   0  0  0  0  0  0  0  0  0  0  0  0
    3.7117    4.6929    0.1508 C   0  0  0  0  0  0  0  0  0  0  0  0
    4.0424    4.3363    1.0246 N   0  0  0  0  0  0  0  0  0  0  0  0
    4.9378    4.4815    1.4073 H   0  0  0  0  0  0  0  0  0  0  0  0
 95 96  1  0  0  0
 95 97  1  0  0  0
 95 98  1  0  0  0
 96 91  1  0  0  0
 96 99  1  0  0  0
 91 92  2  0  0  0
 91 93  1  0  0  0
 93 90  1  0  0  0
 93 94  1  0  0  0
 90103  1  0  0  0
 90 86  1  0  0  0
103104  1  0  0  0
104105  1  0  0  0
105106  2  0  0  0
105107  1  0  0  0
107108  1  0  0  0
107109  1  0  0  0
 86 87  2  0  0  0
 86 88  1  0  0  0
 88 85  1  0  0  0
 88 89  1  0  0  0
 85110  1  0  0  0
 85 81  1  0  0  0
110111  1  0  0  0
111112  1  0  0  0
112113  2  0  0  0
112114  1  0  0  0
114115  1  0  0  0
114116  1  0  0  0
 81 82  2  0  0  0
 81 83  1  0  0  0
 83 79  1  0  0  0
 83 84  1  0  0  0
 79 80  1  0  0  0
 79 75  1  0  0  0
 75 76  2  0  0  0
 75 77  1  0  0  0
 77 74  1  0  0  0
 77 78  1  0  0  0
 74117  1  0  0  0
 74 70  1  0  0  0
117118  1  0  0  0
118119  1  0  0  0
 70 71  2  0  0  0
 70 72  1  0  0  0
 72 69  1  0  0  0
 72 73  1  0  0  0
 69120  1  0  0  0
 69 65  1  0  0  0
120121  1  0  0  0
121125  1  0  0  0
121122  2  0  0  0
122123  1  0  0  0
123124  2  0  0  0
124125  1  0  0  0
125126  1  0  0  0
 65 66  2  0  0  0
 65 67  1  0  0  0
 67  1  1  0  0  0
 67 68  1  0  0  0
  1  2  1  0  0  0
  1 10  1  0  0  0
  2  8  2  0  0  0
  2  3  1  0  0  0
  3  4  2  0  0  0
  4  5  1  0  0  0
  5  6  1  0  0  0
  5  7  2  0  0  0
  6  9  1  0  0  0
  7  8  1  0  0  0
 10 11  2  0  0  0
 10 12  1  0  0  0
 12 14  1  0  0  0
 12 13  1  0  0  0
 14 58  1  0  0  0
 14 15  1  0  0  0
 58 59  1  0  0  0
 59 60  1  0  0  0
 60 61  1  0  0  0
 61 62  1  0  0  0
 62 63  1  0  0  0
 62 64  1  0  0  0
 15 16  2  0  0  0
 15 17  1  0  0  0
 17 19  1  0  0  0
 17 18  1  0  0  0
 19 51  1  0  0  0
 19 20  1  0  0  0
 51 52  1  0  0  0
 52 53  1  0  0  0
 53 54  2  0  0  0
 53 55  1  0  0  0
 55 56  1  0  0  0
 55 57  1  0  0  0
 20 21  2  0  0  0
 20 22  1  0  0  0
 22 24  1  0  0  0
 22 23  1  0  0  0
 24 44  1  0  0  0
 24 25  1  0  0  0
 44 45  1  0  0  0
 45 49  1  0  0  0
 45 46  2  0  0  0
 46 47  1  0  0  0
 47 48  2  0  0  0
 48 49  1  0  0  0
 49 50  1  0  0  0
 25 26  2  0  0  0
 25 27  1  0  0  0
 27 29  1  0  0  0
 27 28  1  0  0  0
 29 41  1  0  0  0
 29 30  1  0  0  0
 41 42  1  0  0  0
 42 43  1  0  0  0
 30 31  2  0  0  0
 30 32  1  0  0  0
 32 36  1  0  0  0
 32 33  1  0  0  0
 33 34  1  0  0  0
 34 35  1  0  0  0
 35 36  1  0  0  0
 36 37  1  0  0  0
 37 38  1  0  0  0
 37 39  2  0  0  0
 38 40  1  0  0  0
 99100  1  0  0  0
 99101  1  0  0  0
100102  1  0  0  0
M  END
> <minimizedAffinity>
-5.21023

$$$$



126129  0  0  0  0  0  0  0  0999 V2000
   -2.2235   -1.9476    1.7942 C   0  0  0  0  0  0  0  0  0  0  0  0
   -2.9756   -2.5011    1.4365 C   0  0  0  0  0  0  0  0  0  0  0  0
   -3.1305   -2.5565    0.4501 C   0  0  0  0  0  0  0  0  0  0  0  0
   -3.8827   -3.1101    0.0924 C   0  0  0  0  0  0  0  0  0  0  0  0
   -4.4799   -3.6082    0.7211 C   0  0  0  0  0  0  0  0  0  0  0  0
   -5.2320   -4.1617    0.3634 O   0  0  0  0  0  0  0  0  0  0  0  0
   -4.3250   -3.5527    1.7075 C   0  0  0  0  0  0  0  0  0  0  0  0
   -3.5729   -2.9992    2.0652 C   0  0  0  0  0  0  0  0  0  0  0  0
   -5.3771   -4.2136   -0.5608 H   0  0  0  0  0  0  0  0  0  0  0  0
   -1.4272   -2.3917    2.2048 C   0  0  0  0  0  0  0  0  0  0  0  0
   -1.5026   -3.3228    2.5617 O   0  0  0  0  0  0  0  0  0  0  0  0
   -0.5555   -1.9047    2.2584 N   0  0  0  0  0  0  0  0  0  0  0  0
   -0.4812   -0.9880    1.9071 H   0  0  0  0  0  0  0  0  0  0  0  0
    0.2410   -2.3488    2.6690 C   0  0  0  0  0  0  0  0  0  0  0  0
    0.6108   -2.0113    3.5346 C   0  0  0  0  0  0  0  0  0  0  0  0
    1.3034   -2.5419    4.0232 O   0  0  0  0  0  0  0  0  0  0  0  0
    0.2881   -1.1431    3.9116 N   0  0  0  0  0  0  0  0  0  0  0  0
   -0.3938   -0.6207    3.4305 H   0  0  0  0  0  0  0  0  0  0  0  0
    0.6579   -0.8055    4.7772 C   0  0  0  0  0  0  0  0  0  0  0  0
    0.1518   -0.9502    5.6274 C   0  0  0  0  0  0  0  0  0  0  0  0
    0.6442   -1.1506    6.4745 O   0  0  0  0  0  0  0  0  0  0  0  0
   -0.8467   -0.8945    5.6307 N   0  0  0  0  0  0  0  0  0  0  0  0
   -1.3314   -0.6973    4.7968 H   0  0  0  0  0  0  0  0  0  0  0  0
   -1.3528   -1.0392    6.4809 C   0  0  0  0  0  0  0  0  0  0  0  0
   -1.6144   -0.2570    7.0463 C   0  0  0  0  0  0  0  0  0  0  0  0
   -1.3306   -0.2153    8.0042 O   0  0  0  0  0  0  0  0  0  0  0  0
   -2.1599    0.4835    6.6537 N   0  0  0  0  0  0  0  0  0  0  0  0
   -2.4393    0.4424    5.7106 H   0  0  0  0  0  0  0  0  0  0  0  0
   -2.4216    1.2657    7.2191 C   0  0  0  0  0  0  0  0  0  0  0  0
   -2.0142    2.1632    7.0503 C   0  0  0  0  0  0  0  0  0  0  0  0
   -1.1658    2.4221    7.5120 O   0  0  0  0  0  0  0  0  0  0  0  0
   -2.4552    2.8019    6.4196 N   0  0  0  0  0  0  0  0  0  0  0  0
   -3.3010    2.6370    5.9122 C   0  0  0  0  0  0  0  0  0  0  0  0
   -3.4963    3.4508    5.3647 C   0  0  0  0  0  0  0  0  0  0  0  0
   -2.7713    4.1184    5.5338 C   0  0  0  0  0  0  0  0  0  0  0  0
   -2.1279    3.7174    6.1858 C   0  0  0  0  0  0  0  0  0  0  0  0
   -1.3021    4.1550    6.5415 C   0  0  0  0  0  0  0  0  0  0  0  0
   -0.4259    4.0203    6.0787 O   0  0  0  0  0  0  0  0  0  0  0  0
   -1.3525    4.7273    7.3600 O   0  0  0  0  0  0  0  0  0  0  0  0
   -0.3787    3.4840    5.3118 H   0  0  0  0  0  0  0  0  0  0  0  0
   -3.0906    1.1504    7.9534 C   0  0  0  0  0  0  0  0  0  0  0  0
   -4.0282    0.8781    7.7373 S   0  0  0  0  0  0  0  0  0  0  0  0
   -4.3935    0.6644    6.4448 H   0  0  0  0  0  0  0  0  0  0  0  0
   -1.5972   -1.9661    6.7658 C   0  0  0  0  0  0  0  0  0  0  0  0
   -2.3767   -2.4295    6.3444 C   0  0  0  0  0  0  0  0  0  0  0  0
   -3.3302   -2.3612    6.6382 C   0  0  0  0  0  0  0  0  0  0  0  0
   -3.8824   -2.9320    6.0306 N   0  0  0  0  0  0  0  0  0  0  0  0
   -3.2703   -3.3531    5.3612 C   0  0  0  0  0  0  0  0  0  0  0  0
   -2.3397   -3.0424    5.5552 N   0  0  0  0  0  0  0  0  0  0  0  0
   -1.5295   -3.2957    5.0566 H   0  0  0  0  0  0  0  0  0  0  0  0
    1.5338   -0.3233    4.7925 C   0  0  0  0  0  0  0  0  0  0  0  0
    1.5549    0.6725    4.8816 C   0  0  0  0  0  0  0  0  0  0  0  0
    2.4200    1.1648    4.7859 C   0  0  0  0  0  0  0  0  0  0  0  0
    3.0393    1.2439    5.5672 O   0  0  0  0  0  0  0  0  0  0  0  0
    2.6658    1.5781    3.9092 N   0  0  0  0  0  0  0  0  0  0  0  0
    2.0561    1.5002    3.1401 H   0  0  0  0  0  0  0  0  0  0  0  0
    3.5175    2.0628    3.8150 H   0  0  0  0  0  0  0  0  0  0  0  0
    0.6675   -3.1305    2.2140 C   0  0  0  0  0  0  0  0  0  0  0  0
    1.2873   -2.9831    1.4431 C   0  0  0  0  0  0  0  0  0  0  0  0
    1.6695   -3.7660    0.9521 C   0  0  0  0  0  0  0  0  0  0  0  0
    1.9772   -3.6614    0.0064 C   0  0  0  0  0  0  0  0  0  0  0  0
    1.3263   -3.7655   -0.7456 N   0  0  0  0  0  0  0  0  0  0  0  0
    0.3485   -3.9784   -0.5480 H   0  0  0  0  0  0  0  0  0  0  0  0
    1.6402   -3.6588   -1.7102 H   0  0  0  0  0  0  0  0  0  0  0  0
   -2.6569   -0.4259    2.4989 C   0  0  0  0  0  0  0  0  0  0  0  0
   -3.0018   -0.8994    3.3094 O   0  0  0  0  0  0  0  0  0  0  0  0
   -2.2678   -0.9500    1.7413 N   0  0  0  0  0  0  0  0  0  0  0  0
   -1.9283   -0.4838    0.9435 H   0  0  0  0  0  0  0  0  0  0  0  0
   -2.7011    0.5717    2.4461 C   0  0  0  0  0  0  0  0  0  0  0  0
   -1.2543    1.5022    2.6483 C   0  0  0  0  0  0  0  0  0  0  0  0
   -1.3302    1.4046    3.6406 O   0  0  0  0  0  0  0  0  0  0  0  0
   -1.9398    1.0858    2.0510 N   0  0  0  0  0  0  0  0  0  0  0  0
   -1.8651    1.1818    1.0740 H   0  0  0  0  0  0  0  0  0  0  0  0
   -0.4930    2.0162    2.2532 C   0  0  0  0  0  0  0  0  0  0  0  0
   -0.2551    3.7262    2.1138 C   0  0  0  0  0  0  0  0  0  0  0  0
   -0.5731    3.6931    1.1663 O   0  0  0  0  0  0  0  0  0  0  0  0
   -0.2150    2.8877    2.6572 N   0  0  0  0  0  0  0  0  0  0  0  0
    0.0981    2.9202    3.5900 H   0  0  0  0  0  0  0  0  0  0  0  0
    0.0229    4.5977    2.5178 C   0  0  0  0  0  0  0  0  0  0  0  0
   -0.6662    5.2157    2.8963 C   0  0  0  0  0  0  0  0  0  0  0  0
    1.3408    5.4089    3.2955 C   0  0  0  0  0  0  0  0  0  0  0  0
    0.7248    5.7131    4.0221 O   0  0  0  0  0  0  0  0  0  0  0  0
    0.9899    4.8512    2.5433 N   0  0  0  0  0  0  0  0  0  0  0  0
    1.5963    4.5517    1.8279 H   0  0  0  0  0  0  0  0  0  0  0  0
    2.3079    5.6624    3.3210 C   0  0  0  0  0  0  0  0  0  0  0  0
    3.3597    5.1637    4.6036 C   0  0  0  0  0  0  0  0  0  0  0  0
    3.5206    4.2956    4.1340 O   0  0  0  0  0  0  0  0  0  0  0  0
    2.7533    5.8471    4.1971 N   0  0  0  0  0  0  0  0  0  0  0  0
    2.5949    6.7018    4.6593 H   0  0  0  0  0  0  0  0  0  0  0  0
    3.8051    5.3484    5.4796 C   0  0  0  0  0  0  0  0  0  0  0  0
    3.1953    4.7795    6.9976 C   0  0  0  0  0  0  0  0  0  0  0  0
    2.6147    5.5905    7.0684 O   0  0  0  0  0  0  0  0  0  0  0  0
    3.7905    4.6584    6.2033 N   0  0  0  0  0  0  0  0  0  0  0  0
    4.3622    3.8598    6.1336 H   0  0  0  0  0  0  0  0  0  0  0  0
    4.0284    3.8350    8.1868 N   0  0  0  0  0  0  0  0  0  0  0  0
    3.1807    4.0894    7.7213 C   0  0  0  0  0  0  0  0  0  0  0  0
    4.0136    3.1312    8.9248 H   0  0  0  0  0  0  0  0  0  0  0  0
    4.9080    4.2794    7.9234 H   0  0  0  0  0  0  0  0  0  0  0  0
    2.3184    3.6537    7.9795 C   0  0  0  0  0  0  0  0  0  0  0  0
    1.8088    3.1164    7.3074 O   0  0  0  0  0  0  0  0  0  0  0  0
    1.9657    3.7554    8.9096 C   0  0  0  0  0  0  0  0  0  0  0  0
    2.1510    3.0178    6.4051 H   0  0  0  0  0  0  0  0  0  0  0  0
    4.2652    6.2230    5.6320 C   0  0  0  0  0  0  0  0  0  0  0  0
    5.2541    6.2970    5.5028 C   0  0  0  0  0  0  0  0  0  0  0  0
    5.7431    7.1030    5.8366 C   0  0  0  0  0  0  0  0  0  0  0  0
    5.5937    7.4272    6.7707 O   0  0  0  0  0  0  0  0  0  0  0  0
    6.3814    7.5847    5.2362 N   0  0  0  0  0  0  0  0  0  0  0  0
    6.5285    7.2654    4.3166 H   0  0  0  0  0  0  0  0  0  0  0  0
    6.8628    8.3781    5.5648 H   0  0  0  0  0  0  0  0  0  0  0  0
    2.8294    5.7313    2.4706 C   0  0  0  0  0  0  0  0  0  0  0  0
    3.0320    6.6291    2.0796 C   0  0  0  0  0  0  0  0  0  0  0  0
    3.7519    6.7241    1.3921 C   0  0  0  0  0  0  0  0  0  0  0  0
    4.7129    6.6830    1.6655 O   0  0  0  0  0  0  0  0  0  0  0  0
    3.5108    6.8602    0.4311 N   0  0  0  0  0  0  0  0  0  0  0  0
    2.5646    6.9006    0.1620 H   0  0  0  0  0  0  0  0  0  0  0  0
    4.2196    6.9537   -0.2457 H   0  0  0  0  0  0  0  0  0  0  0  0
   -0.0096    1.6588    1.4542 C   0  0  0  0  0  0  0  0  0  0  0  0
    0.7111    0.9752    1.5702 O   0  0  0  0  0  0  0  0  0  0  0  0
    1.1800    0.6285    0.7950 H   0  0  0  0  0  0  0  0  0  0  0  0
   -3.5068    1.0553    2.7883 C   0  0  0  0  0  0  0  0  0  0  0  0
   -4.1906    1.4038    2.1472 C   0  0  0  0  0  0  0  0  0  0  0  0
   -4.3233    2.3617    1.8926 C   0  0  0  0  0  0  0  0  0  0  0  0
   -5.0765    2.4056    1.2362 N   0  0  0  0  0  0  0  0  0  0  0  0
   -5.4092    1.4747    1.0851 C   0  0  0  0  0  0  0  0  0  0  0  0
   -4.8617    0.8556    1.6482 N   0  0  0  0  0  0  0  0  0  0  0  0
   -4.9652   -0.1220    1.7017 H   0  0  0  0  0  0  0  0  0  0  0  0
 95 96  1  0  0  0
 95 97  1  0  0  0
 95 98  1  0  0  0
 96 91  1  0  0  0
 96 99  1  0  0  0
 91 92  2  0  0  0
 91 93  1  0  0  0
 93 90  1  0  0  0
 93 94  1  0  0  0
 90103  1  0  0  0
 90 86  1  0  0  0
103104  1  0  0  0
104105  1  0  0  0
105106  2  0  0  0
105107  1  0  0  0
107108  1  0  0  0
107109  1  0  0  0
 86 87  2  0  0  0
 86 88  1  0  0  0
 88 85  1  0  0  0
 88 89  1  0  0  0
 85110  1  0  0  0
 85 81  1  0  0  0
110111  1  0  0  0
111112  1  0  0  0
112113  2  0  0  0
112114  1  0  0  0
114115  1  0  0  0
114116  1  0  0  0
 81 82  2  0  0  0
 81 83  1  0  0  0
 83 79  1  0  0  0
 83 84  1  0  0  0
 79 80  1  0  0  0
 79 75  1  0  0  0
 75 76  2  0  0  0
 75 77  1  0  0  0
 77 74  1  0  0  0
 77 78  1  0  0  0
 74117  1  0  0  0
 74 70  1  0  0  0
117118  1  0  0  0
118119  1  0  0  0
 70 71  2  0  0  0
 70 72  1  0  0  0
 72 69  1  0  0  0
 72 73  1  0  0  0
 69120  1  0  0  0
 69 65  1  0  0  0
120121  1  0  0  0
121125  1  0  0  0
121122  2  0  0  0
122123  1  0  0  0
123124  2  0  0  0
124125  1  0  0  0
125126  1  0  0  0
 65 66  2  0  0  0
 65 67  1  0  0  0
 67  1  1  0  0  0
 67 68  1  0  0  0
  1  2  1  0  0  0
  1 10  1  0  0  0
  2  8  2  0  0  0
  2  3  1  0  0  0
  3  4  2  0  0  0
  4  5  1  0  0  0
  5  6  1  0  0  0
  5  7  2  0  0  0
  6  9  1  0  0  0
  7  8  1  0  0  0
 10 11  2  0  0  0
 10 12  1  0  0  0
 12 14  1  0  0  0
 12 13  1  0  0  0
 14 58  1  0  0  0
 14 15  1  0  0  0
 58 59  1  0  0  0
 59 60  1  0  0  0
 60 61  1  0  0  0
 61 62  1  0  0  0
 62 63  1  0  0  0
 62 64  1  0  0  0
 15 16  2  0  0  0
 15 17  1  0  0  0
 17 19  1  0  0  0
 17 18  1  0  0  0
 19 51  1  0  0  0
 19 20  1  0  0  0
 51 52  1  0  0  0
 52 53  1  0  0  0
 53 54  2  0  0  0
 53 55  1  0  0  0
 55 56  1  0  0  0
 55 57  1  0  0  0
 20 21  2  0  0  0
 20 22  1  0  0  0
 22 24  1  0  0  0
 22 23  1  0  0  0
 24 44  1  0  0  0
 24 25  1  0  0  0
 44 45  1  0  0  0
 45 49  1  0  0  0
 45 46  2  0  0  0
 46 47  1  0  0  0
 47 48  2  0  0  0
 48 49  1  0  0  0
 49 50  1  0  0  0
 25 26  2  0  0  0
 25 27  1  0  0  0
 27 29  1  0  0  0
 27 28  1  0  0  0
 29 41  1  0  0  0
 29 30  1  0  0  0
 41 42  1  0  0  0
 42 43  1  0  0  0
 30 31  2  0  0  0
 30 32  1  0  0  0
 32 36  1  0  0  0
 32 33  1  0  0  0
 33 34  1  0  0  0
 34 35  1  0  0  0
 35 36  1  0  0  0
 36 37  1  0  0  0
 37 38  1  0  0  0
 37 39  2  0  0  0
 38 40  1  0  0  0
 99100  1  0  0  0
 99101  1  0  0  0
100102  1  0  0  0
M  END
> <minimizedAffinity>
-5.14951

$$$$



126129  0  0  0  0  0  0  0  0999 V2000
   -2.3919   -1.4172    1.9983 C   0  0  0  0  0  0  0  0  0  0  0  0
   -3.1997   -1.9060    1.6691 C   0  0  0  0  0  0  0  0  0  0  0  0
   -3.3686   -1.9883    0.6869 C   0  0  0  0  0  0  0  0  0  0  0  0
   -4.1766   -2.4771    0.3577 C   0  0  0  0  0  0  0  0  0  0  0  0
   -4.8156   -2.8836    1.0106 C   0  0  0  0  0  0  0  0  0  0  0  0
   -5.6235   -3.3723    0.6814 O   0  0  0  0  0  0  0  0  0  0  0  0
   -4.6467   -2.8013    1.9928 C   0  0  0  0  0  0  0  0  0  0  0  0
   -3.8389   -2.3125    2.3221 C   0  0  0  0  0  0  0  0  0  0  0  0
   -5.7817   -3.4494   -0.2390 H   0  0  0  0  0  0  0  0  0  0  0  0
   -1.6242   -1.9258    2.3882 C   0  0  0  0  0  0  0  0  0  0  0  0
   -1.7861   -2.7946    2.8562 O   0  0  0  0  0  0  0  0  0  0  0  0
   -0.6946   -1.5656    2.3101 N   0  0  0  0  0  0  0  0  0  0  0  0
   -0.5352   -0.7103    1.8494 H   0  0  0  0  0  0  0  0  0  0  0  0
    0.0731   -2.0743    2.7000 C   0  0  0  0  0  0  0  0  0  0  0  0
    0.4959   -1.7660    3.5522 C   0  0  0  0  0  0  0  0  0  0  0  0
    1.1783   -2.3380    4.0073 O   0  0  0  0  0  0  0  0  0  0  0  0
    0.2363   -0.8856    3.9492 N   0  0  0  0  0  0  0  0  0  0  0  0
   -0.4354   -0.3225    3.5011 H   0  0  0  0  0  0  0  0  0  0  0  0
    0.6591   -0.5774    4.8014 C   0  0  0  0  0  0  0  0  0  0  0  0
    0.2008   -0.7414    5.6748 C   0  0  0  0  0  0  0  0  0  0  0  0
    0.7295   -1.0440    6.4679 O   0  0  0  0  0  0  0  0  0  0  0  0
   -0.7864   -0.6030    5.7553 N   0  0  0  0  0  0  0  0  0  0  0  0
   -1.3069   -0.3051    4.9746 H   0  0  0  0  0  0  0  0  0  0  0  0
   -1.2448   -0.7670    6.6288 C   0  0  0  0  0  0  0  0  0  0  0  0
   -1.5148    0.0047    7.2044 C   0  0  0  0  0  0  0  0  0  0  0  0
   -0.8725    0.3781    7.8737 O   0  0  0  0  0  0  0  0  0  0  0  0
   -2.4272    0.4032    7.1108 N   0  0  0  0  0  0  0  0  0  0  0  0
   -3.0596    0.0356    6.4519 H   0  0  0  0  0  0  0  0  0  0  0  0
   -2.6973    1.1750    7.6864 C   0  0  0  0  0  0  0  0  0  0  0  0
   -2.7572    2.0934    7.2955 C   0  0  0  0  0  0  0  0  0  0  0  0
   -2.0211    2.7521    7.4512 O   0  0  0  0  0  0  0  0  0  0  0  0
   -3.5533    2.3532    6.7488 N   0  0  0  0  0  0  0  0  0  0  0  0
   -4.3370    1.7692    6.5375 C   0  0  0  0  0  0  0  0  0  0  0  0
   -4.9735    2.2977    5.9756 C   0  0  0  0  0  0  0  0  0  0  0  0
   -4.5831    3.2082    5.8398 C   0  0  0  0  0  0  0  0  0  0  0  0
   -3.7054    3.2425    6.3177 C   0  0  0  0  0  0  0  0  0  0  0  0
   -3.0881    4.0282    6.3574 C   0  0  0  0  0  0  0  0  0  0  0  0
   -2.3809    4.1443    5.6600 O   0  0  0  0  0  0  0  0  0  0  0  0
   -3.1780    4.6980    7.0946 O   0  0  0  0  0  0  0  0  0  0  0  0
   -2.2966    3.5167    4.9693 H   0  0  0  0  0  0  0  0  0  0  0  0
   -2.9074    1.0283    8.6531 C   0  0  0  0  0  0  0  0  0  0  0  0
   -3.7385    0.5379    8.9153 S   0  0  0  0  0  0  0  0  0  0  0  0
   -4.5830    0.0703    7.9574 H   0  0  0  0  0  0  0  0  0  0  0  0
   -1.4331   -1.7029    6.9266 C   0  0  0  0  0  0  0  0  0  0  0  0
   -2.1218   -2.2500    6.4509 C   0  0  0  0  0  0  0  0  0  0  0  0
   -3.1014   -2.0536    6.4076 C   0  0  0  0  0  0  0  0  0  0  0  0
   -3.5369   -2.7717    5.8649 N   0  0  0  0  0  0  0  0  0  0  0  0
   -2.8265   -3.4120    5.5726 C   0  0  0  0  0  0  0  0  0  0  0  0
   -1.9519   -3.0895    5.9349 N   0  0  0  0  0  0  0  0  0  0  0  0
   -1.0772   -3.5226    5.8060 H   0  0  0  0  0  0  0  0  0  0  0  0
    1.5403   -0.1050    4.7801 C   0  0  0  0  0  0  0  0  0  0  0  0
    1.5861    0.8764    4.9666 C   0  0  0  0  0  0  0  0  0  0  0  0
    2.4606    1.3572    4.9024 C   0  0  0  0  0  0  0  0  0  0  0  0
    3.0447    1.4425    5.7097 O   0  0  0  0  0  0  0  0  0  0  0  0
    2.7510    1.7527    4.0311 N   0  0  0  0  0  0  0  0  0  0  0  0
    2.1760    1.6687    3.2364 H   0  0  0  0  0  0  0  0  0  0  0  0
    3.6119    2.2260    3.9680 H   0  0  0  0  0  0  0  0  0  0  0  0
    0.4180   -2.8911    2.2377 C   0  0  0  0  0  0  0  0  0  0  0  0
    0.9385   -2.8027    1.3883 C   0  0  0  0  0  0  0  0  0  0  0  0
    1.2212   -3.6210    0.8877 C   0  0  0  0  0  0  0  0  0  0  0  0
    2.0534   -3.6055    0.3336 C   0  0  0  0  0  0  0  0  0  0  0  0
    1.9897   -3.6049   -0.6644 N   0  0  0  0  0  0  0  0  0  0  0  0
    1.0757   -3.6201   -1.1171 H   0  0  0  0  0  0  0  0  0  0  0  0
    2.8385   -3.5890   -1.2297 H   0  0  0  0  0  0  0  0  0  0  0  0
   -2.6539    0.1405    2.7088 C   0  0  0  0  0  0  0  0  0  0  0  0
   -2.9964   -0.2965    3.5406 O   0  0  0  0  0  0  0  0  0  0  0  0
   -2.3516   -0.4199    1.9377 N   0  0  0  0  0  0  0  0  0  0  0  0
   -2.0144    0.0102    1.1189 H   0  0  0  0  0  0  0  0  0  0  0  0
   -2.6137    1.1378    2.6482 C   0  0  0  0  0  0  0  0  0  0  0  0
   -1.1114    1.9830    2.8186 C   0  0  0  0  0  0  0  0  0  0  0  0
   -1.2000    1.9397    3.8137 O   0  0  0  0  0  0  0  0  0  0  0  0
   -1.8183    1.5820    2.2358 N   0  0  0  0  0  0  0  0  0  0  0  0
   -1.7312    1.6246    1.2561 H   0  0  0  0  0  0  0  0  0  0  0  0
   -0.3161    2.4271    2.4062 C   0  0  0  0  0  0  0  0  0  0  0  0
   -0.0893    4.1443    2.4121 C   0  0  0  0  0  0  0  0  0  0  0  0
   -0.6376    4.2195    1.5792 O   0  0  0  0  0  0  0  0  0  0  0  0
    0.0715    3.2481    2.8256 N   0  0  0  0  0  0  0  0  0  0  0  0
    0.6113    3.1740    3.6455 H   0  0  0  0  0  0  0  0  0  0  0  0
    0.2983    4.9652    2.8314 C   0  0  0  0  0  0  0  0  0  0  0  0
    0.0747    5.8677    2.4634 C   0  0  0  0  0  0  0  0  0  0  0  0
    0.6666    5.3159    4.4870 C   0  0  0  0  0  0  0  0  0  0  0  0
   -0.1875    5.8297    4.5682 O   0  0  0  0  0  0  0  0  0  0  0  0
    0.9094    4.8836    3.6186 N   0  0  0  0  0  0  0  0  0  0  0  0
    1.7502    4.3777    3.5388 H   0  0  0  0  0  0  0  0  0  0  0  0
    1.2777    5.2343    5.2744 C   0  0  0  0  0  0  0  0  0  0  0  0
    2.9545    5.6412    5.1235 C   0  0  0  0  0  0  0  0  0  0  0  0
    2.7298    6.6090    5.2366 O   0  0  0  0  0  0  0  0  0  0  0  0
    2.2285    4.9539    5.1424 N   0  0  0  0  0  0  0  0  0  0  0  0
    2.4497    4.0010    5.0310 H   0  0  0  0  0  0  0  0  0  0  0  0
    3.9053    5.3608    4.9915 C   0  0  0  0  0  0  0  0  0  0  0  0
    4.5563    5.3987    3.3869 C   0  0  0  0  0  0  0  0  0  0  0  0
    4.0853    4.5423    3.1755 O   0  0  0  0  0  0  0  0  0  0  0  0
    4.4663    5.8079    4.2949 N   0  0  0  0  0  0  0  0  0  0  0  0
    4.9301    6.6510    4.5030 H   0  0  0  0  0  0  0  0  0  0  0  0
    6.1094    5.8991    2.8057 N   0  0  0  0  0  0  0  0  0  0  0  0
    5.1175    5.8459    2.6903 C   0  0  0  0  0  0  0  0  0  0  0  0
    6.6817    6.3552    2.0952 H   0  0  0  0  0  0  0  0  0  0  0  0
    6.5487    5.4972    3.6339 H   0  0  0  0  0  0  0  0  0  0  0  0
    4.6867    6.2399    1.8784 C   0  0  0  0  0  0  0  0  0  0  0  0
    3.9902    6.9506    1.9770 O   0  0  0  0  0  0  0  0  0  0  0  0
    4.9524    5.9231    0.9679 C   0  0  0  0  0  0  0  0  0  0  0  0
    3.7325    7.2579    2.8602 H   0  0  0  0  0  0  0  0  0  0  0  0
    4.2949    4.6332    5.5560 C   0  0  0  0  0  0  0  0  0  0  0  0
    4.8536    4.8635    6.3528 C   0  0  0  0  0  0  0  0  0  0  0  0
    5.4600    4.1767    6.7537 C   0  0  0  0  0  0  0  0  0  0  0  0
    5.9166    3.5087    6.1660 O   0  0  0  0  0  0  0  0  0  0  0  0
    5.6099    4.1580    7.7422 N   0  0  0  0  0  0  0  0  0  0  0  0
    5.1604    4.8157    8.3207 H   0  0  0  0  0  0  0  0  0  0  0  0
    6.2069    3.4820    8.1368 H   0  0  0  0  0  0  0  0  0  0  0  0
    0.9382    5.4332    6.1937 C   0  0  0  0  0  0  0  0  0  0  0  0
    0.7941    4.6886    6.8454 C   0  0  0  0  0  0  0  0  0  0  0  0
    0.6695    4.8913    7.8167 C   0  0  0  0  0  0  0  0  0  0  0  0
    1.4630    5.0905    8.3917 O   0  0  0  0  0  0  0  0  0  0  0  0
   -0.2487    4.8950    8.2130 N   0  0  0  0  0  0  0  0  0  0  0  0
   -1.0299    4.6989    7.6468 H   0  0  0  0  0  0  0  0  0  0  0  0
   -0.3713    5.0946    9.1692 H   0  0  0  0  0  0  0  0  0  0  0  0
    0.0918    2.0504    1.5746 C   0  0  0  0  0  0  0  0  0  0  0  0
    0.7668    1.3153    1.6374 O   0  0  0  0  0  0  0  0  0  0  0  0
    1.1624    0.9498    0.8306 H   0  0  0  0  0  0  0  0  0  0  0  0
   -3.3689    1.6910    2.9999 C   0  0  0  0  0  0  0  0  0  0  0  0
   -4.0393    2.0810    2.3688 C   0  0  0  0  0  0  0  0  0  0  0  0
   -4.0636    3.0280    2.0485 C   0  0  0  0  0  0  0  0  0  0  0  0
   -4.8425    3.1249    1.4288 N   0  0  0  0  0  0  0  0  0  0  0  0
   -5.2996    2.2376    1.3661 C   0  0  0  0  0  0  0  0  0  0  0  0
   -4.8031    1.5925    1.9470 N   0  0  0  0  0  0  0  0  0  0  0  0
   -5.0271    0.6432    2.0803 H   0  0  0  0  0  0  0  0  0  0  0  0
 95 96  1  0  0  0
 95 97  1  0  0  0
 95 98  1  0  0  0
 96 91  1  0  0  0
 96 99  1  0  0  0
 91 92  2  0  0  0
 91 93  1  0  0  0
 93 90  1  0  0  0
 93 94  1  0  0  0
 90103  1  0  0  0
 90 86  1  0  0  0
103104  1  0  0  0
104105  1  0  0  0
105106  2  0  0  0
105107  1  0  0  0
107108  1  0  0  0
107109  1  0  0  0
 86 87  2  0  0  0
 86 88  1  0  0  0
 88 85  1  0  0  0
 88 89  1  0  0  0
 85110  1  0  0  0
 85 81  1  0  0  0
110111  1  0  0  0
111112  1  0  0  0
112113  2  0  0  0
112114  1  0  0  0
114115  1  0  0  0
114116  1  0  0  0
 81 82  2  0  0  0
 81 83  1  0  0  0
 83 79  1  0  0  0
 83 84  1  0  0  0
 79 80  1  0  0  0
 79 75  1  0  0  0
 75 76  2  0  0  0
 75 77  1  0  0  0
 77 74  1  0  0  0
 77 78  1  0  0  0
 74117  1  0  0  0
 74 70  1  0  0  0
117118  1  0  0  0
118119  1  0  0  0
 70 71  2  0  0  0
 70 72  1  0  0  0
 72 69  1  0  0  0
 72 73  1  0  0  0
 69120  1  0  0  0
 69 65  1  0  0  0
120121  1  0  0  0
121125  1  0  0  0
121122  2  0  0  0
122123  1  0  0  0
123124  2  0  0  0
124125  1  0  0  0
125126  1  0  0  0
 65 66  2  0  0  0
 65 67  1  0  0  0
 67  1  1  0  0  0
 67 68  1  0  0  0
  1  2  1  0  0  0
  1 10  1  0  0  0
  2  8  2  0  0  0
  2  3  1  0  0  0
  3  4  2  0  0  0
  4  5  1  0  0  0
  5  6  1  0  0  0
  5  7  2  0  0  0
  6  9  1  0  0  0
  7  8  1  0  0  0
 10 11  2  0  0  0
 10 12  1  0  0  0
 12 14  1  0  0  0
 12 13  1  0  0  0
 14 58  1  0  0  0
 14 15  1  0  0  0
 58 59  1  0  0  0
 59 60  1  0  0  0
 60 61  1  0  0  0
 61 62  1  0  0  0
 62 63  1  0  0  0
 62 64  1  0  0  0
 15 16  2  0  0  0
 15 17  1  0  0  0
 17 19  1  0  0  0
 17 18  1  0  0  0
 19 51  1  0  0  0
 19 20  1  0  0  0
 51 52  1  0  0  0
 52 53  1  0  0  0
 53 54  2  0  0  0
 53 55  1  0  0  0
 55 56  1  0  0  0
 55 57  1  0  0  0
 20 21  2  0  0  0
 20 22  1  0  0  0
 22 24  1  0  0  0
 22 23  1  0  0  0
 24 44  1  0  0  0
 24 25  1  0  0  0
 44 45  1  0  0  0
 45 49  1  0  0  0
 45 46  2  0  0  0
 46 47  1  0  0  0
 47 48  2  0  0  0
 48 49  1  0  0  0
 49 50  1  0  0  0
 25 26  2  0  0  0
 25 27  1  0  0  0
 27 29  1  0  0  0
 27 28  1  0  0  0
 29 41  1  0  0  0
 29 30  1  0  0  0
 41 42  1  0  0  0
 42 43  1  0  0  0
 30 31  2  0  0  0
 30 32  1  0  0  0
 32 36  1  0  0  0
 32 33  1  0  0  0
 33 34  1  0  0  0
 34 35  1  0  0  0
 35 36  1  0  0  0
 36 37  1  0  0  0
 37 38  1  0  0  0
 37 39  2  0  0  0
 38 40  1  0  0  0
 99100  1  0  0  0
 99101  1  0  0  0
100102  1  0  0  0
M  END
> <minimizedAffinity>
-5.14344

$$$$



126129  0  0  0  0  0  0  0  0999 V2000
    1.4494    2.1013    6.4433 C   0  0  0  0  0  0  0  0  0  0  0  0
    1.9352    2.9228    6.7416 C   0  0  0  0  0  0  0  0  0  0  0  0
    1.4297    3.7689    6.9108 C   0  0  0  0  0  0  0  0  0  0  0  0
    1.9156    4.5905    7.2091 C   0  0  0  0  0  0  0  0  0  0  0  0
    2.9069    4.5660    7.3382 C   0  0  0  0  0  0  0  0  0  0  0  0
    3.3927    5.3876    7.6365 O   0  0  0  0  0  0  0  0  0  0  0  0
    3.4124    3.7199    7.1690 C   0  0  0  0  0  0  0  0  0  0  0  0
    2.9266    2.8984    6.8707 C   0  0  0  0  0  0  0  0  0  0  0  0
    2.9191    6.1803    7.7951 H   0  0  0  0  0  0  0  0  0  0  0  0
    0.7330    1.7073    7.0191 C   0  0  0  0  0  0  0  0  0  0  0  0
   -0.0377    2.2717    7.3148 O   0  0  0  0  0  0  0  0  0  0  0  0
    0.7874    0.7489    7.2992 N   0  0  0  0  0  0  0  0  0  0  0  0
    1.5462    0.1932    7.0081 H   0  0  0  0  0  0  0  0  0  0  0  0
    0.0710    0.3548    7.8751 C   0  0  0  0  0  0  0  0  0  0  0  0
   -0.6774   -0.1616    7.4590 C   0  0  0  0  0  0  0  0  0  0  0  0
   -0.5124   -0.7067    6.6370 O   0  0  0  0  0  0  0  0  0  0  0  0
   -1.5909   -0.1328    7.8648 N   0  0  0  0  0  0  0  0  0  0  0  0
   -1.7534    0.4038    8.6739 H   0  0  0  0  0  0  0  0  0  0  0  0
   -2.3394   -0.6492    7.4486 C   0  0  0  0  0  0  0  0  0  0  0  0
   -3.0582   -0.1698    6.9453 C   0  0  0  0  0  0  0  0  0  0  0  0
   -3.4899   -0.6042    6.1547 O   0  0  0  0  0  0  0  0  0  0  0  0
   -3.3455    0.7440    7.2324 N   0  0  0  0  0  0  0  0  0  0  0  0
   -2.9205    1.1717    8.0107 H   0  0  0  0  0  0  0  0  0  0  0  0
   -4.0644    1.2234    6.7290 C   0  0  0  0  0  0  0  0  0  0  0  0
   -5.0178    1.1408    7.0189 C   0  0  0  0  0  0  0  0  0  0  0  0
   -5.7414    1.0434    6.3356 O   0  0  0  0  0  0  0  0  0  0  0  0
   -5.2477    1.1557    7.9920 N   0  0  0  0  0  0  0  0  0  0  0  0
   -4.5353    1.2516    8.6646 H   0  0  0  0  0  0  0  0  0  0  0  0
   -6.2012    1.0731    8.2818 C   0  0  0  0  0  0  0  0  0  0  0  0
   -6.5274    0.2211    8.6913 C   0  0  0  0  0  0  0  0  0  0  0  0
   -7.2774   -0.2839    8.2643 O   0  0  0  0  0  0  0  0  0  0  0  0
   -6.1034   -0.1259    9.5279 N   0  0  0  0  0  0  0  0  0  0  0  0
   -5.3515    0.3040   10.0278 C   0  0  0  0  0  0  0  0  0  0  0  0
   -5.1403   -0.2682   10.8203 C   0  0  0  0  0  0  0  0  0  0  0  0
   -5.7617   -1.0517   10.8101 C   0  0  0  0  0  0  0  0  0  0  0  0
   -6.3569   -0.9637   10.0114 C   0  0  0  0  0  0  0  0  0  0  0  0
   -7.0787   -1.6016    9.7433 C   0  0  0  0  0  0  0  0  0  0  0  0
   -6.8548   -2.4101    9.1990 O   0  0  0  0  0  0  0  0  0  0  0  0
   -8.0247   -1.4310   10.0194 O   0  0  0  0  0  0  0  0  0  0  0  0
   -5.9686   -2.5699    8.9403 H   0  0  0  0  0  0  0  0  0  0  0  0
   -6.8287    1.8426    8.1621 C   0  0  0  0  0  0  0  0  0  0  0  0
   -6.7874    2.6231    8.7857 S   0  0  0  0  0  0  0  0  0  0  0  0
   -5.8779    2.6383    9.7968 H   0  0  0  0  0  0  0  0  0  0  0  0
   -3.8297    1.7854    5.9358 C   0  0  0  0  0  0  0  0  0  0  0  0
   -3.4607    2.7055    6.0665 C   0  0  0  0  0  0  0  0  0  0  0  0
   -3.9878    3.5225    6.3009 C   0  0  0  0  0  0  0  0  0  0  0  0
   -3.3527    4.2922    6.3650 N   0  0  0  0  0  0  0  0  0  0  0  0
   -2.4330    3.9510    6.1703 C   0  0  0  0  0  0  0  0  0  0  0  0
   -2.4998    2.9704    5.9859 N   0  0  0  0  0  0  0  0  0  0  0  0
   -1.7510    2.3711    5.7638 H   0  0  0  0  0  0  0  0  0  0  0  0
   -2.3689   -1.6450    7.5359 C   0  0  0  0  0  0  0  0  0  0  0  0
   -2.8369   -2.0651    8.3134 C   0  0  0  0  0  0  0  0  0  0  0  0
   -3.2188   -2.9855    8.2293 C   0  0  0  0  0  0  0  0  0  0  0  0
   -3.8726   -3.3194    8.9083 O   0  0  0  0  0  0  0  0  0  0  0  0
   -2.9468   -3.5718    7.4664 N   0  0  0  0  0  0  0  0  0  0  0  0
   -2.3031   -3.2430    6.7980 H   0  0  0  0  0  0  0  0  0  0  0  0
   -3.3227   -4.4780    7.3836 H   0  0  0  0  0  0  0  0  0  0  0  0
    0.1032    0.4771    8.8670 C   0  0  0  0  0  0  0  0  0  0  0  0
    0.8465    0.0693    9.3973 C   0  0  0  0  0  0  0  0  0  0  0  0
    0.7867    0.0311   10.3948 C   0  0  0  0  0  0  0  0  0  0  0  0
    1.4922    0.4652   10.9550 C   0  0  0  0  0  0  0  0  0  0  0  0
    1.7793    0.0415   11.8141 N   0  0  0  0  0  0  0  0  0  0  0  0
    1.3526   -0.8333   12.1190 H   0  0  0  0  0  0  0  0  0  0  0  0
    2.4989    0.4843   12.3855 H   0  0  0  0  0  0  0  0  0  0  0  0
    1.1630    1.9086    4.7460 C   0  0  0  0  0  0  0  0  0  0  0  0
    0.4156    2.5710    4.7968 O   0  0  0  0  0  0  0  0  0  0  0  0
    1.6799    1.6737    5.5692 N   0  0  0  0  0  0  0  0  0  0  0  0
    2.4157    1.0216    5.5191 H   0  0  0  0  0  0  0  0  0  0  0  0
    1.3936    1.4810    3.8719 C   0  0  0  0  0  0  0  0  0  0  0  0
    0.5297    0.1304    3.2165 C   0  0  0  0  0  0  0  0  0  0  0  0
    1.1154   -0.4946    3.7326 O   0  0  0  0  0  0  0  0  0  0  0  0
    0.6688    1.1182    3.2862 N   0  0  0  0  0  0  0  0  0  0  0  0
    0.0922    1.7336    2.7781 H   0  0  0  0  0  0  0  0  0  0  0  0
   -0.1950   -0.2324    2.6309 C   0  0  0  0  0  0  0  0  0  0  0  0
   -1.5576   -1.1757    3.1345 C   0  0  0  0  0  0  0  0  0  0  0  0
   -2.1002   -0.3411    3.2294 O   0  0  0  0  0  0  0  0  0  0  0  0
   -0.6050   -1.1214    2.8352 N   0  0  0  0  0  0  0  0  0  0  0  0
   -0.0708   -1.9430    2.7417 H   0  0  0  0  0  0  0  0  0  0  0  0
   -1.9676   -2.0646    3.3388 C   0  0  0  0  0  0  0  0  0  0  0  0
   -1.6959   -2.5632    4.1619 C   0  0  0  0  0  0  0  0  0  0  0  0
   -2.4619   -3.3170    2.2493 C   0  0  0  0  0  0  0  0  0  0  0  0
   -1.5927   -3.7888    2.3973 O   0  0  0  0  0  0  0  0  0  0  0  0
   -2.6494   -2.4549    2.7200 N   0  0  0  0  0  0  0  0  0  0  0  0
   -3.5051   -1.9904    2.5743 H   0  0  0  0  0  0  0  0  0  0  0  0
   -3.1437   -3.7073    1.6304 C   0  0  0  0  0  0  0  0  0  0  0  0
   -4.8742   -3.7226    1.7017 C   0  0  0  0  0  0  0  0  0  0  0  0
   -4.9080   -2.9749    1.0384 O   0  0  0  0  0  0  0  0  0  0  0  0
   -3.9920   -4.0888    1.9976 N   0  0  0  0  0  0  0  0  0  0  0  0
   -3.9586   -4.8248    2.6506 H   0  0  0  0  0  0  0  0  0  0  0  0
   -5.7225   -4.1040    2.0689 C   0  0  0  0  0  0  0  0  0  0  0  0
   -6.2122   -3.5947    3.6502 C   0  0  0  0  0  0  0  0  0  0  0  0
   -6.5330   -2.7266    3.2714 O   0  0  0  0  0  0  0  0  0  0  0  0
   -5.8070   -4.2833    3.0490 N   0  0  0  0  0  0  0  0  0  0  0  0
   -5.4911   -5.1380    3.4220 H   0  0  0  0  0  0  0  0  0  0  0  0
   -6.9065   -4.4968    4.9557 N   0  0  0  0  0  0  0  0  0  0  0  0
   -6.2967   -3.7741    4.6305 C   0  0  0  0  0  0  0  0  0  0  0  0
   -6.9927   -4.6799    5.9554 H   0  0  0  0  0  0  0  0  0  0  0  0
   -7.4423   -5.0510    4.2877 H   0  0  0  0  0  0  0  0  0  0  0  0
   -5.7714   -3.2308    5.2853 C   0  0  0  0  0  0  0  0  0  0  0  0
   -4.7749   -3.1875    5.2136 O   0  0  0  0  0  0  0  0  0  0  0  0
   -6.2426   -2.7307    6.0118 C   0  0  0  0  0  0  0  0  0  0  0  0
   -4.3179   -3.6727    4.5088 H   0  0  0  0  0  0  0  0  0  0  0  0
   -6.4864   -4.3060    1.4560 C   0  0  0  0  0  0  0  0  0  0  0  0
   -6.8031   -5.2481    1.3456 C   0  0  0  0  0  0  0  0  0  0  0  0
   -7.4956   -5.4654    0.6576 C   0  0  0  0  0  0  0  0  0  0  0  0
   -7.2600   -5.4418   -0.3139 O   0  0  0  0  0  0  0  0  0  0  0  0
   -8.4238   -5.7063    0.9413 N   0  0  0  0  0  0  0  0  0  0  0  0
   -8.6558   -5.7295    1.8978 H   0  0  0  0  0  0  0  0  0  0  0  0
   -9.1055   -5.9203    0.2640 H   0  0  0  0  0  0  0  0  0  0  0  0
   -2.9771   -3.7162    0.6445 C   0  0  0  0  0  0  0  0  0  0  0  0
   -2.5196   -4.4985    0.2218 C   0  0  0  0  0  0  0  0  0  0  0  0
   -2.1966   -4.4384   -0.7227 C   0  0  0  0  0  0  0  0  0  0  0  0
   -1.3953   -4.9624   -1.0115 O   0  0  0  0  0  0  0  0  0  0  0  0
   -2.6748   -3.8541   -1.3785 N   0  0  0  0  0  0  0  0  0  0  0  0
   -3.4636   -3.3381   -1.0942 H   0  0  0  0  0  0  0  0  0  0  0  0
   -2.3567   -3.7949   -2.3083 H   0  0  0  0  0  0  0  0  0  0  0  0
   -0.5098    0.2936    1.8409 C   0  0  0  0  0  0  0  0  0  0  0  0
   -0.2687   -0.0005    0.9160 O   0  0  0  0  0  0  0  0  0  0  0  0
   -0.5740    0.5099    0.1497 H   0  0  0  0  0  0  0  0  0  0  0  0
    2.3489    1.4163    3.5835 C   0  0  0  0  0  0  0  0  0  0  0  0
    2.7228    2.0829    2.9385 C   0  0  0  0  0  0  0  0  0  0  0  0
    2.8306    1.9508    1.9532 C   0  0  0  0  0  0  0  0  0  0  0  0
    3.2289    2.7848    1.5713 N   0  0  0  0  0  0  0  0  0  0  0  0
    3.3673    3.4323    2.3208 C   0  0  0  0  0  0  0  0  0  0  0  0
    3.0545    2.9984    3.1657 N   0  0  0  0  0  0  0  0  0  0  0  0
    3.0703    3.4019    4.0636 H   0  0  0  0  0  0  0  0  0  0  0  0
 95 96  1  0  0  0
 95 97  1  0  0  0
 95 98  1  0  0  0
 96 91  1  0  0  0
 96 99  1  0  0  0
 91 92  2  0  0  0
 91 93  1  0  0  0
 93 90  1  0  0  0
 93 94  1  0  0  0
 90103  1  0  0  0
 90 86  1  0  0  0
103104  1  0  0  0
104105  1  0  0  0
105106  2  0  0  0
105107  1  0  0  0
107108  1  0  0  0
107109  1  0  0  0
 86 87  2  0  0  0
 86 88  1  0  0  0
 88 85  1  0  0  0
 88 89  1  0  0  0
 85110  1  0  0  0
 85 81  1  0  0  0
110111  1  0  0  0
111112  1  0  0  0
112113  2  0  0  0
112114  1  0  0  0
114115  1  0  0  0
114116  1  0  0  0
 81 82  2  0  0  0
 81 83  1  0  0  0
 83 79  1  0  0  0
 83 84  1  0  0  0
 79 80  1  0  0  0
 79 75  1  0  0  0
 75 76  2  0  0  0
 75 77  1  0  0  0
 77 74  1  0  0  0
 77 78  1  0  0  0
 74117  1  0  0  0
 74 70  1  0  0  0
117118  1  0  0  0
118119  1  0  0  0
 70 71  2  0  0  0
 70 72  1  0  0  0
 72 69  1  0  0  0
 72 73  1  0  0  0
 69120  1  0  0  0
 69 65  1  0  0  0
120121  1  0  0  0
121125  1  0  0  0
121122  2  0  0  0
122123  1  0  0  0
123124  2  0  0  0
124125  1  0  0  0
125126  1  0  0  0
 65 66  2  0  0  0
 65 67  1  0  0  0
 67  1  1  0  0  0
 67 68  1  0  0  0
  1  2  1  0  0  0
  1 10  1  0  0  0
  2  8  2  0  0  0
  2  3  1  0  0  0
  3  4  2  0  0  0
  4  5  1  0  0  0
  5  6  1  0  0  0
  5  7  2  0  0  0
  6  9  1  0  0  0
  7  8  1  0  0  0
 10 11  2  0  0  0
 10 12  1  0  0  0
 12 14  1  0  0  0
 12 13  1  0  0  0
 14 58  1  0  0  0
 14 15  1  0  0  0
 58 59  1  0  0  0
 59 60  1  0  0  0
 60 61  1  0  0  0
 61 62  1  0  0  0
 62 63  1  0  0  0
 62 64  1  0  0  0
 15 16  2  0  0  0
 15 17  1  0  0  0
 17 19  1  0  0  0
 17 18  1  0  0  0
 19 51  1  0  0  0
 19 20  1  0  0  0
 51 52  1  0  0  0
 52 53  1  0  0  0
 53 54  2  0  0  0
 53 55  1  0  0  0
 55 56  1  0  0  0
 55 57  1  0  0  0
 20 21  2  0  0  0
 20 22  1  0  0  0
 22 24  1  0  0  0
 22 23  1  0  0  0
 24 44  1  0  0  0
 24 25  1  0  0  0
 44 45  1  0  0  0
 45 49  1  0  0  0
 45 46  2  0  0  0
 46 47  1  0  0  0
 47 48  2  0  0  0
 48 49  1  0  0  0
 49 50  1  0  0  0
 25 26  2  0  0  0
 25 27  1  0  0  0
 27 29  1  0  0  0
 27 28  1  0  0  0
 29 41  1  0  0  0
 29 30  1  0  0  0
 41 42  1  0  0  0
 42 43  1  0  0  0
 30 31  2  0  0  0
 30 32  1  0  0  0
 32 36  1  0  0  0
 32 33  1  0  0  0
 33 34  1  0  0  0
 34 35  1  0  0  0
 35 36  1  0  0  0
 36 37  1  0  0  0
 37 38  1  0  0  0
 37 39  2  0  0  0
 38 40  1  0  0  0
 99100  1  0  0  0
 99101  1  0  0  0
100102  1  0  0  0
M  END
> <minimizedAffinity>
-5.11074

$$$$



126129  0  0  0  0  0  0  0  0999 V2000
    1.6346    2.4883    3.5911 C   0  0  0  0  0  0  0  0  0  0  0  0
    2.1000    2.7657    2.7506 C   0  0  0  0  0  0  0  0  0  0  0  0
    1.5947    3.2479    2.0350 C   0  0  0  0  0  0  0  0  0  0  0  0
    2.0601    3.5252    1.1944 C   0  0  0  0  0  0  0  0  0  0  0  0
    3.0309    3.3203    1.0695 C   0  0  0  0  0  0  0  0  0  0  0  0
    3.4963    3.5977    0.2290 O   0  0  0  0  0  0  0  0  0  0  0  0
    3.5363    2.8381    1.7851 C   0  0  0  0  0  0  0  0  0  0  0  0
    3.0709    2.5608    2.6256 C   0  0  0  0  0  0  0  0  0  0  0  0
    3.0228    4.0495   -0.4415 H   0  0  0  0  0  0  0  0  0  0  0  0
    1.8183    2.9715    4.4471 C   0  0  0  0  0  0  0  0  0  0  0  0
    1.3046    3.7988    4.6744 O   0  0  0  0  0  0  0  0  0  0  0  0
    2.5157    2.6275    5.0757 N   0  0  0  0  0  0  0  0  0  0  0  0
    3.0215    1.8130    4.8519 H   0  0  0  0  0  0  0  0  0  0  0  0
    2.6995    3.1107    5.9318 C   0  0  0  0  0  0  0  0  0  0  0  0
    2.2599    2.8120    6.7788 C   0  0  0  0  0  0  0  0  0  0  0  0
    2.2221    1.8390    7.0064 O   0  0  0  0  0  0  0  0  0  0  0  0
    1.8579    3.4864    7.3983 N   0  0  0  0  0  0  0  0  0  0  0  0
    1.8951    4.4443    7.1742 H   0  0  0  0  0  0  0  0  0  0  0  0
    1.4183    3.1877    8.2453 C   0  0  0  0  0  0  0  0  0  0  0  0
    1.9351    3.1810    9.1014 C   0  0  0  0  0  0  0  0  0  0  0  0
    2.0376    2.3302    9.6168 O   0  0  0  0  0  0  0  0  0  0  0  0
    2.3494    4.0250    9.4421 N   0  0  0  0  0  0  0  0  0  0  0  0
    2.2485    4.8626    8.9346 H   0  0  0  0  0  0  0  0  0  0  0  0
    2.8662    4.0182   10.2981 C   0  0  0  0  0  0  0  0  0  0  0  0
    2.3894    4.1230   11.1708 C   0  0  0  0  0  0  0  0  0  0  0  0
    1.6462    4.7863   11.2580 O   0  0  0  0  0  0  0  0  0  0  0  0
    2.6557    3.5644   11.9563 N   0  0  0  0  0  0  0  0  0  0  0  0
    3.3874    2.9113   11.8704 H   0  0  0  0  0  0  0  0  0  0  0  0
    2.1789    3.6691   12.8290 C   0  0  0  0  0  0  0  0  0  0  0  0
    1.5350    2.9676   13.1343 C   0  0  0  0  0  0  0  0  0  0  0  0
    0.5756    3.2031   13.2898 O   0  0  0  0  0  0  0  0  0  0  0  0
    1.8504    2.0305   13.2841 N   0  0  0  0  0  0  0  0  0  0  0  0
    2.7847    1.6974   13.1569 C   0  0  0  0  0  0  0  0  0  0  0  0
    2.7985    0.7231   13.3816 C   0  0  0  0  0  0  0  0  0  0  0  0
    1.8729    0.4540   13.6477 C   0  0  0  0  0  0  0  0  0  0  0  0
    1.2869    1.2621   13.5874 C   0  0  0  0  0  0  0  0  0  0  0  0
    0.3091    1.2958   13.7941 C   0  0  0  0  0  0  0  0  0  0  0  0
    0.0013    1.4977   14.7239 O   0  0  0  0  0  0  0  0  0  0  0  0
   -0.3609    1.1276   13.0710 O   0  0  0  0  0  0  0  0  0  0  0  0
    0.6291    1.6552   15.4014 H   0  0  0  0  0  0  0  0  0  0  0  0
    2.3460    4.4754   13.3965 C   0  0  0  0  0  0  0  0  0  0  0  0
    3.1654    4.5238   13.9676 S   0  0  0  0  0  0  0  0  0  0  0  0
    4.0527    3.4931   13.9726 H   0  0  0  0  0  0  0  0  0  0  0  0
    3.8599    3.9067   10.2815 C   0  0  0  0  0  0  0  0  0  0  0  0
    4.4414    4.6528    9.9571 C   0  0  0  0  0  0  0  0  0  0  0  0
    5.4157    4.5874    9.7413 C   0  0  0  0  0  0  0  0  0  0  0  0
    5.7271    5.4894    9.4424 N   0  0  0  0  0  0  0  0  0  0  0  0
    4.9454    6.1123    9.4734 C   0  0  0  0  0  0  0  0  0  0  0  0
    4.1507    5.5951    9.7915 N   0  0  0  0  0  0  0  0  0  0  0  0
    3.2419    5.9514    9.9192 H   0  0  0  0  0  0  0  0  0  0  0  0
    0.4619    2.8959    8.2363 C   0  0  0  0  0  0  0  0  0  0  0  0
   -0.2644    3.5673    8.0892 C   0  0  0  0  0  0  0  0  0  0  0  0
   -1.1833    3.2629    7.8382 C   0  0  0  0  0  0  0  0  0  0  0  0
   -1.3209    2.7168    7.0118 O   0  0  0  0  0  0  0  0  0  0  0  0
   -1.9646    3.5047    8.4136 N   0  0  0  0  0  0  0  0  0  0  0  0
   -1.8291    4.0424    9.2272 H   0  0  0  0  0  0  0  0  0  0  0  0
   -2.8693    3.2051    8.1666 H   0  0  0  0  0  0  0  0  0  0  0  0
    3.3229    3.8925    5.9407 C   0  0  0  0  0  0  0  0  0  0  0  0
    4.3113    3.7443    5.9081 C   0  0  0  0  0  0  0  0  0  0  0  0
    4.9367    4.5161    6.0229 C   0  0  0  0  0  0  0  0  0  0  0  0
    5.9241    4.3601    6.0488 C   0  0  0  0  0  0  0  0  0  0  0  0
    6.5410    5.1023    6.3107 N   0  0  0  0  0  0  0  0  0  0  0  0
    6.1629    6.0186    6.5516 H   0  0  0  0  0  0  0  0  0  0  0  0
    7.5481    4.9431    6.3371 H   0  0  0  0  0  0  0  0  0  0  0  0
    1.3041    0.7950    3.7440 C   0  0  0  0  0  0  0  0  0  0  0  0
    2.2719    0.6227    3.9280 O   0  0  0  0  0  0  0  0  0  0  0  0
    0.9855    1.7278    3.5756 N   0  0  0  0  0  0  0  0  0  0  0  0
    0.0328    1.8974    3.3945 H   0  0  0  0  0  0  0  0  0  0  0  0
    0.6551    0.0344    3.7286 C   0  0  0  0  0  0  0  0  0  0  0  0
   -0.4723   -0.2482    5.0128 C   0  0  0  0  0  0  0  0  0  0  0  0
   -1.1094    0.4002    4.5962 O   0  0  0  0  0  0  0  0  0  0  0  0
    0.4100   -0.4311    4.5789 N   0  0  0  0  0  0  0  0  0  0  0  0
    1.0373   -1.0695    4.9890 H   0  0  0  0  0  0  0  0  0  0  0  0
   -0.7174   -0.7138    5.8631 C   0  0  0  0  0  0  0  0  0  0  0  0
   -1.6575   -2.1683    5.8803 C   0  0  0  0  0  0  0  0  0  0  0  0
   -0.8276   -2.7065    5.7334 O   0  0  0  0  0  0  0  0  0  0  0  0
   -1.6024   -1.1720    5.9452 N   0  0  0  0  0  0  0  0  0  0  0  0
   -2.4194   -0.6422    6.0898 H   0  0  0  0  0  0  0  0  0  0  0  0
   -2.5425   -2.6266    5.9623 C   0  0  0  0  0  0  0  0  0  0  0  0
   -2.6374   -3.4292    6.5512 C   0  0  0  0  0  0  0  0  0  0  0  0
   -3.6950   -2.8011    4.6812 C   0  0  0  0  0  0  0  0  0  0  0  0
   -3.2671   -3.6645    4.4139 O   0  0  0  0  0  0  0  0  0  0  0  0
   -3.3328   -2.2822    5.4555 N   0  0  0  0  0  0  0  0  0  0  0  0
   -3.7541   -1.4322    5.7187 H   0  0  0  0  0  0  0  0  0  0  0  0
   -4.4853   -2.4568    4.1743 C   0  0  0  0  0  0  0  0  0  0  0  0
   -4.2156   -1.5995    2.6937 C   0  0  0  0  0  0  0  0  0  0  0  0
   -3.9786   -0.7781    3.2125 O   0  0  0  0  0  0  0  0  0  0  0  0
   -4.4689   -2.4388    3.1746 N   0  0  0  0  0  0  0  0  0  0  0  0
   -4.7022   -3.2475    2.6639 H   0  0  0  0  0  0  0  0  0  0  0  0
   -4.1992   -1.5815    1.6940 C   0  0  0  0  0  0  0  0  0  0  0  0
   -2.9961   -2.4456    0.7963 C   0  0  0  0  0  0  0  0  0  0  0  0
   -2.3584   -1.6852    0.9188 O   0  0  0  0  0  0  0  0  0  0  0  0
   -3.9165   -2.3938    1.1839 N   0  0  0  0  0  0  0  0  0  0  0  0
   -4.5443   -3.1425    1.0633 H   0  0  0  0  0  0  0  0  0  0  0  0
   -2.8333   -3.2921   -0.7061 N   0  0  0  0  0  0  0  0  0  0  0  0
   -2.7134   -3.2580    0.2861 C   0  0  0  0  0  0  0  0  0  0  0  0
   -2.5450   -4.1207   -1.2264 H   0  0  0  0  0  0  0  0  0  0  0  0
   -3.2438   -2.4983   -1.1978 H   0  0  0  0  0  0  0  0  0  0  0  0
   -2.3110   -4.0362    0.7682 C   0  0  0  0  0  0  0  0  0  0  0  0
   -1.4530   -3.9245    1.2695 O   0  0  0  0  0  0  0  0  0  0  0  0
   -2.7667   -4.9262    0.7490 C   0  0  0  0  0  0  0  0  0  0  0  0
   -1.0110   -3.0612    1.2880 H   0  0  0  0  0  0  0  0  0  0  0  0
   -4.4654   -0.7512    1.2044 C   0  0  0  0  0  0  0  0  0  0  0  0
   -5.3635   -0.6943    0.7682 C   0  0  0  0  0  0  0  0  0  0  0  0
   -5.5760    0.0699    0.1592 C   0  0  0  0  0  0  0  0  0  0  0  0
   -5.4504    1.0105    0.4746 O   0  0  0  0  0  0  0  0  0  0  0  0
   -5.9142   -0.1065   -0.7652 N   0  0  0  0  0  0  0  0  0  0  0  0
   -6.0378   -1.0325   -1.0756 H   0  0  0  0  0  0  0  0  0  0  0  0
   -6.1235    0.6458   -1.3647 H   0  0  0  0  0  0  0  0  0  0  0  0
   -5.2919   -2.1304    4.6671 C   0  0  0  0  0  0  0  0  0  0  0  0
   -6.1121   -2.7003    4.7166 C   0  0  0  0  0  0  0  0  0  0  0  0
   -6.9861   -2.2964    4.9868 C   0  0  0  0  0  0  0  0  0  0  0  0
   -7.5943   -1.9107    4.2930 O   0  0  0  0  0  0  0  0  0  0  0  0
   -7.2518   -2.2781    5.9507 N   0  0  0  0  0  0  0  0  0  0  0  0
   -6.6530   -2.6578    6.6337 H   0  0  0  0  0  0  0  0  0  0  0  0
   -8.1123   -1.8804    6.2166 H   0  0  0  0  0  0  0  0  0  0  0  0
   -0.0774   -0.7211    6.6315 C   0  0  0  0  0  0  0  0  0  0  0  0
   -0.1324   -0.0123    7.3348 O   0  0  0  0  0  0  0  0  0  0  0  0
    0.4884   -0.0195    8.0801 H   0  0  0  0  0  0  0  0  0  0  0  0
    0.2510   -0.2605    2.8626 C   0  0  0  0  0  0  0  0  0  0  0  0
    0.5724   -1.0979    2.4205 C   0  0  0  0  0  0  0  0  0  0  0  0
    1.0064   -1.1587    1.5217 C   0  0  0  0  0  0  0  0  0  0  0  0
    1.2184   -2.1200    1.3452 N   0  0  0  0  0  0  0  0  0  0  0  0
    0.9153   -2.6533    2.1351 C   0  0  0  0  0  0  0  0  0  0  0  0
    0.5161   -2.0215    2.7996 N   0  0  0  0  0  0  0  0  0  0  0  0
    0.1346   -2.2661    3.6736 H   0  0  0  0  0  0  0  0  0  0  0  0
 95 96  1  0  0  0
 95 97  1  0  0  0
 95 98  1  0  0  0
 96 91  1  0  0  0
 96 99  1  0  0  0
 91 92  2  0  0  0
 91 93  1  0  0  0
 93 90  1  0  0  0
 93 94  1  0  0  0
 90103  1  0  0  0
 90 86  1  0  0  0
103104  1  0  0  0
104105  1  0  0  0
105106  2  0  0  0
105107  1  0  0  0
107108  1  0  0  0
107109  1  0  0  0
 86 87  2  0  0  0
 86 88  1  0  0  0
 88 85  1  0  0  0
 88 89  1  0  0  0
 85110  1  0  0  0
 85 81  1  0  0  0
110111  1  0  0  0
111112  1  0  0  0
112113  2  0  0  0
112114  1  0  0  0
114115  1  0  0  0
114116  1  0  0  0
 81 82  2  0  0  0
 81 83  1  0  0  0
 83 79  1  0  0  0
 83 84  1  0  0  0
 79 80  1  0  0  0
 79 75  1  0  0  0
 75 76  2  0  0  0
 75 77  1  0  0  0
 77 74  1  0  0  0
 77 78  1  0  0  0
 74117  1  0  0  0
 74 70  1  0  0  0
117118  1  0  0  0
118119  1  0  0  0
 70 71  2  0  0  0
 70 72  1  0  0  0
 72 69  1  0  0  0
 72 73  1  0  0  0
 69120  1  0  0  0
 69 65  1  0  0  0
120121  1  0  0  0
121125  1  0  0  0
121122  2  0  0  0
122123  1  0  0  0
123124  2  0  0  0
124125  1  0  0  0
125126  1  0  0  0
 65 66  2  0  0  0
 65 67  1  0  0  0
 67  1  1  0  0  0
 67 68  1  0  0  0
  1  2  1  0  0  0
  1 10  1  0  0  0
  2  8  2  0  0  0
  2  3  1  0  0  0
  3  4  2  0  0  0
  4  5  1  0  0  0
  5  6  1  0  0  0
  5  7  2  0  0  0
  6  9  1  0  0  0
  7  8  1  0  0  0
 10 11  2  0  0  0
 10 12  1  0  0  0
 12 14  1  0  0  0
 12 13  1  0  0  0
 14 58  1  0  0  0
 14 15  1  0  0  0
 58 59  1  0  0  0
 59 60  1  0  0  0
 60 61  1  0  0  0
 61 62  1  0  0  0
 62 63  1  0  0  0
 62 64  1  0  0  0
 15 16  2  0  0  0
 15 17  1  0  0  0
 17 19  1  0  0  0
 17 18  1  0  0  0
 19 51  1  0  0  0
 19 20  1  0  0  0
 51 52  1  0  0  0
 52 53  1  0  0  0
 53 54  2  0  0  0
 53 55  1  0  0  0
 55 56  1  0  0  0
 55 57  1  0  0  0
 20 21  2  0  0  0
 20 22  1  0  0  0
 22 24  1  0  0  0
 22 23  1  0  0  0
 24 44  1  0  0  0
 24 25  1  0  0  0
 44 45  1  0  0  0
 45 49  1  0  0  0
 45 46  2  0  0  0
 46 47  1  0  0  0
 47 48  2  0  0  0
 48 49  1  0  0  0
 49 50  1  0  0  0
 25 26  2  0  0  0
 25 27  1  0  0  0
 27 29  1  0  0  0
 27 28  1  0  0  0
 29 41  1  0  0  0
 29 30  1  0  0  0
 41 42  1  0  0  0
 42 43  1  0  0  0
 30 31  2  0  0  0
 30 32  1  0  0  0
 32 36  1  0  0  0
 32 33  1  0  0  0
 33 34  1  0  0  0
 34 35  1  0  0  0
 35 36  1  0  0  0
 36 37  1  0  0  0
 37 38  1  0  0  0
 37 39  2  0  0  0
 38 40  1  0  0  0
 99100  1  0  0  0
 99101  1  0  0  0
100102  1  0  0  0
M  END
> <minimizedAffinity>
-5.09530

$$$$



126129  0  0  0  0  0  0  0  0999 V2000
   32.3408    3.1035   11.2346 C   0  0  0  0  0  0  0  0  0  0  0  0
   31.7014    3.8700   11.1764 C   0  0  0  0  0  0  0  0  0  0  0  0
   30.9363    3.8352   10.5334 C   0  0  0  0  0  0  0  0  0  0  0  0
   30.2967    4.6018   10.4752 C   0  0  0  0  0  0  0  0  0  0  0  0
   30.4223    5.4032   11.0599 C   0  0  0  0  0  0  0  0  0  0  0  0
   29.7828    6.1698   11.0016 O   0  0  0  0  0  0  0  0  0  0  0  0
   31.1874    5.4381   11.7029 C   0  0  0  0  0  0  0  0  0  0  0  0
   31.8269    4.6715   11.7611 C   0  0  0  0  0  0  0  0  0  0  0  0
   29.0660    6.1371   10.3992 H   0  0  0  0  0  0  0  0  0  0  0  0
   32.8665    2.8286   10.4296 C   0  0  0  0  0  0  0  0  0  0  0  0
   32.4377    2.2709    9.7189 O   0  0  0  0  0  0  0  0  0  0  0  0
   33.8210    3.1115   10.3352 N   0  0  0  0  0  0  0  0  0  0  0  0
   34.2432    3.6606   11.0349 H   0  0  0  0  0  0  0  0  0  0  0  0
   34.3468    2.8367    9.5302 C   0  0  0  0  0  0  0  0  0  0  0  0
   34.5201    3.4948    8.7975 C   0  0  0  0  0  0  0  0  0  0  0  0
   34.8534    4.4116    9.0176 O   0  0  0  0  0  0  0  0  0  0  0  0
   34.3601    3.2362    7.8449 N   0  0  0  0  0  0  0  0  0  0  0  0
   34.0319    2.3337    7.6283 H   0  0  0  0  0  0  0  0  0  0  0  0
   34.5334    3.8944    7.1123 C   0  0  0  0  0  0  0  0  0  0  0  0
   33.7696    4.3732    6.6793 C   0  0  0  0  0  0  0  0  0  0  0  0
   32.9987    3.8540    6.3103 O   0  0  0  0  0  0  0  0  0  0  0  0
   33.7768    5.3712    6.6154 N   0  0  0  0  0  0  0  0  0  0  0  0
   34.5357    5.8823    6.9787 H   0  0  0  0  0  0  0  0  0  0  0  0
   33.0130    5.8499    6.1824 C   0  0  0  0  0  0  0  0  0  0  0  0
   32.2298    6.1415    6.7316 C   0  0  0  0  0  0  0  0  0  0  0  0
   32.3422    6.3152    7.7100 O   0  0  0  0  0  0  0  0  0  0  0  0
   31.3343    6.2593    6.3024 N   0  0  0  0  0  0  0  0  0  0  0  0
   31.2238    6.0882    5.3393 H   0  0  0  0  0  0  0  0  0  0  0  0
   30.5511    6.5508    6.8516 C   0  0  0  0  0  0  0  0  0  0  0  0
   29.7932    5.9196    7.0163 C   0  0  0  0  0  0  0  0  0  0  0  0
   29.5653    5.6448    7.9503 O   0  0  0  0  0  0  0  0  0  0  0  0
   29.2632    5.5631    6.2467 N   0  0  0  0  0  0  0  0  0  0  0  0
   29.4123    5.7768    5.2813 C   0  0  0  0  0  0  0  0  0  0  0  0
   28.7323    5.2761    4.7455 C   0  0  0  0  0  0  0  0  0  0  0  0
   28.1631    4.7531    5.3799 C   0  0  0  0  0  0  0  0  0  0  0  0
   28.4912    4.9304    6.3077 C   0  0  0  0  0  0  0  0  0  0  0  0
   28.1137    4.5431    7.1487 C   0  0  0  0  0  0  0  0  0  0  0  0
   27.3053    4.9546    7.5698 O   0  0  0  0  0  0  0  0  0  0  0  0
   28.5445    3.7444    7.5688 O   0  0  0  0  0  0  0  0  0  0  0  0
   26.9017    5.7030    7.1762 H   0  0  0  0  0  0  0  0  0  0  0  0
   30.5258    7.4736    7.2362 C   0  0  0  0  0  0  0  0  0  0  0  0
   30.2087    8.2397    6.6772 S   0  0  0  0  0  0  0  0  0  0  0  0
   29.8119    8.0268    5.3940 H   0  0  0  0  0  0  0  0  0  0  0  0
   33.0325    6.0372    5.2003 C   0  0  0  0  0  0  0  0  0  0  0  0
   33.7655    6.5957    4.8122 C   0  0  0  0  0  0  0  0  0  0  0  0
   33.9790    7.5406    5.0606 C   0  0  0  0  0  0  0  0  0  0  0  0
   34.7592    7.8364    4.5095 N   0  0  0  0  0  0  0  0  0  0  0  0
   35.0280    7.0743    3.9204 C   0  0  0  0  0  0  0  0  0  0  0  0
   34.4138    6.3075    4.1076 N   0  0  0  0  0  0  0  0  0  0  0  0
   34.4426    5.4241    3.6740 H   0  0  0  0  0  0  0  0  0  0  0  0
   35.4704    4.0738    6.8126 C   0  0  0  0  0  0  0  0  0  0  0  0
   35.8965    3.4863    6.1247 C   0  0  0  0  0  0  0  0  0  0  0  0
   36.8910    3.4779    6.0210 C   0  0  0  0  0  0  0  0  0  0  0  0
   37.4651    3.0811    6.7374 O   0  0  0  0  0  0  0  0  0  0  0  0
   37.3116    3.8662    5.2011 N   0  0  0  0  0  0  0  0  0  0  0  0
   36.7465    4.2568    4.4959 H   0  0  0  0  0  0  0  0  0  0  0  0
   38.2908    3.8580    5.0991 H   0  0  0  0  0  0  0  0  0  0  0  0
   34.6992    1.9036    9.4578 C   0  0  0  0  0  0  0  0  0  0  0  0
   35.5872    1.6723    9.8554 C   0  0  0  0  0  0  0  0  0  0  0  0
   36.0514    0.8288    9.5854 C   0  0  0  0  0  0  0  0  0  0  0  0
   37.0461    0.7590    9.6614 C   0  0  0  0  0  0  0  0  0  0  0  0
   37.4551    0.0518   10.2381 N   0  0  0  0  0  0  0  0  0  0  0  0
   36.8577   -0.5985   10.7487 H   0  0  0  0  0  0  0  0  0  0  0  0
   38.4696   -0.0193   10.3157 H   0  0  0  0  0  0  0  0  0  0  0  0
   31.9825    1.7425   12.2442 C   0  0  0  0  0  0  0  0  0  0  0  0
   31.3965    1.3648   11.5271 O   0  0  0  0  0  0  0  0  0  0  0  0
   32.4547    2.6117   12.0979 N   0  0  0  0  0  0  0  0  0  0  0  0
   33.0315    2.9835   12.8037 H   0  0  0  0  0  0  0  0  0  0  0  0
   32.0963    1.2507   13.1075 C   0  0  0  0  0  0  0  0  0  0  0  0
   33.6368    0.5417   13.4599 C   0  0  0  0  0  0  0  0  0  0  0  0
   33.4234   -0.2238   12.8530 O   0  0  0  0  0  0  0  0  0  0  0  0
   32.9733    1.2790   13.5871 N   0  0  0  0  0  0  0  0  0  0  0  0
   33.1834    2.0327   14.1847 H   0  0  0  0  0  0  0  0  0  0  0  0
   34.5138    0.5700   13.9396 C   0  0  0  0  0  0  0  0  0  0  0  0
   35.9722    1.3684   13.4543 C   0  0  0  0  0  0  0  0  0  0  0  0
   36.3019    0.5176   13.0452 O   0  0  0  0  0  0  0  0  0  0  0  0
   35.0782    1.3946   13.9015 N   0  0  0  0  0  0  0  0  0  0  0  0
   34.7536    2.2323   14.3043 H   0  0  0  0  0  0  0  0  0  0  0  0
   36.5366    2.1930   13.4162 C   0  0  0  0  0  0  0  0  0  0  0  0
   37.5036    2.1492   13.6673 C   0  0  0  0  0  0  0  0  0  0  0  0
   36.1918    3.8624   13.7231 C   0  0  0  0  0  0  0  0  0  0  0  0
   36.6522    3.7948   14.6083 O   0  0  0  0  0  0  0  0  0  0  0  0
   36.1341    3.0615   13.1271 N   0  0  0  0  0  0  0  0  0  0  0  0
   35.6809    3.1281   12.2556 H   0  0  0  0  0  0  0  0  0  0  0  0
   35.7893    4.7310   13.4340 C   0  0  0  0  0  0  0  0  0  0  0  0
   36.5994    5.6637   12.2200 C   0  0  0  0  0  0  0  0  0  0  0  0
   37.2422    6.0007   12.9079 O   0  0  0  0  0  0  0  0  0  0  0  0
   35.8729    5.0289   12.4830 N   0  0  0  0  0  0  0  0  0  0  0  0
   35.2401    4.6971   11.8058 H   0  0  0  0  0  0  0  0  0  0  0  0
   36.6831    5.9616   11.2691 C   0  0  0  0  0  0  0  0  0  0  0  0
   35.6761    7.1998   10.5962 C   0  0  0  0  0  0  0  0  0  0  0  0
   36.2989    7.8981   10.9491 O   0  0  0  0  0  0  0  0  0  0  0  0
   35.8682    6.2316   10.7562 N   0  0  0  0  0  0  0  0  0  0  0  0
   35.2551    5.5441   10.4087 H   0  0  0  0  0  0  0  0  0  0  0  0
   33.9519    7.2589   10.4420 N   0  0  0  0  0  0  0  0  0  0  0  0
   34.8612    7.4697   10.0832 C   0  0  0  0  0  0  0  0  0  0  0  0
   33.1207    7.5342    9.9189 H   0  0  0  0  0  0  0  0  0  0  0  0
   33.8557    6.7685   11.3313 H   0  0  0  0  0  0  0  0  0  0  0  0
   34.9556    7.9505    9.2114 C   0  0  0  0  0  0  0  0  0  0  0  0
   35.2211    7.4472    8.3891 O   0  0  0  0  0  0  0  0  0  0  0  0
   34.7844    8.9345    9.1620 C   0  0  0  0  0  0  0  0  0  0  0  0
   35.3872    6.4927    8.4371 H   0  0  0  0  0  0  0  0  0  0  0  0
   37.5816    5.9895   10.8311 C   0  0  0  0  0  0  0  0  0  0  0  0
   37.8965    5.2124   10.2862 C   0  0  0  0  0  0  0  0  0  0  0  0
   38.6951    5.3092    9.6921 C   0  0  0  0  0  0  0  0  0  0  0  0
   39.4251    5.9479    9.9356 O   0  0  0  0  0  0  0  0  0  0  0  0
   38.7638    4.7674    8.8544 N   0  0  0  0  0  0  0  0  0  0  0  0
   38.0451    4.1386    8.6147 H   0  0  0  0  0  0  0  0  0  0  0  0
   39.5499    4.8626    8.2696 H   0  0  0  0  0  0  0  0  0  0  0  0
   35.3031    5.3016   14.0957 C   0  0  0  0  0  0  0  0  0  0  0  0
   34.3042    5.3456   14.0795 C   0  0  0  0  0  0  0  0  0  0  0  0
   33.8226    5.9950   14.6680 C   0  0  0  0  0  0  0  0  0  0  0  0
   33.7528    5.8227   15.6505 O   0  0  0  0  0  0  0  0  0  0  0  0
   33.4109    6.8168   14.2739 N   0  0  0  0  0  0  0  0  0  0  0  0
   33.4797    6.9864   13.3066 H   0  0  0  0  0  0  0  0  0  0  0  0
   32.9368    7.4561   14.8534 H   0  0  0  0  0  0  0  0  0  0  0  0
   34.8264   -0.2263   14.4573 C   0  0  0  0  0  0  0  0  0  0  0  0
   34.4352   -0.4232   15.3564 O   0  0  0  0  0  0  0  0  0  0  0  0
   34.7385   -1.1957   15.8586 H   0  0  0  0  0  0  0  0  0  0  0  0
   31.3331    0.7307   13.4911 C   0  0  0  0  0  0  0  0  0  0  0  0
   30.8119    1.1013   14.2598 C   0  0  0  0  0  0  0  0  0  0  0  0
   30.9532    0.8830   15.2254 C   0  0  0  0  0  0  0  0  0  0  0  0
   30.2864    1.4020   15.7604 N   0  0  0  0  0  0  0  0  0  0  0  0
   29.7330    1.9410   15.1253 C   0  0  0  0  0  0  0  0  0  0  0  0
   30.0578    1.7551   14.1979 N   0  0  0  0  0  0  0  0  0  0  0  0
   29.6982    2.1470   13.3695 H   0  0  0  0  0  0  0  0  0  0  0  0
 95 96  1  0  0  0
 95 97  1  0  0  0
 95 98  1  0  0  0
 96 91  1  0  0  0
 96 99  1  0  0  0
 91 92  2  0  0  0
 91 93  1  0  0  0
 93 90  1  0  0  0
 93 94  1  0  0  0
 90103  1  0  0  0
 90 86  1  0  0  0
103104  1  0  0  0
104105  1  0  0  0
105106  2  0  0  0
105107  1  0  0  0
107108  1  0  0  0
107109  1  0  0  0
 86 87  2  0  0  0
 86 88  1  0  0  0
 88 85  1  0  0  0
 88 89  1  0  0  0
 85110  1  0  0  0
 85 81  1  0  0  0
110111  1  0  0  0
111112  1  0  0  0
112113  2  0  0  0
112114  1  0  0  0
114115  1  0  0  0
114116  1  0  0  0
 81 82  2  0  0  0
 81 83  1  0  0  0
 83 79  1  0  0  0
 83 84  1  0  0  0
 79 80  1  0  0  0
 79 75  1  0  0  0
 75 76  2  0  0  0
 75 77  1  0  0  0
 77 74  1  0  0  0
 77 78  1  0  0  0
 74117  1  0  0  0
 74 70  1  0  0  0
117118  1  0  0  0
118119  1  0  0  0
 70 71  2  0  0  0
 70 72  1  0  0  0
 72 69  1  0  0  0
 72 73  1  0  0  0
 69120  1  0  0  0
 69 65  1  0  0  0
120121  1  0  0  0
121125  1  0  0  0
121122  2  0  0  0
122123  1  0  0  0
123124  2  0  0  0
124125  1  0  0  0
125126  1  0  0  0
 65 66  2  0  0  0
 65 67  1  0  0  0
 67  1  1  0  0  0
 67 68  1  0  0  0
  1  2  1  0  0  0
  1 10  1  0  0  0
  2  8  2  0  0  0
  2  3  1  0  0  0
  3  4  2  0  0  0
  4  5  1  0  0  0
  5  6  1  0  0  0
  5  7  2  0  0  0
  6  9  1  0  0  0
  7  8  1  0  0  0
 10 11  2  0  0  0
 10 12  1  0  0  0
 12 14  1  0  0  0
 12 13  1  0  0  0
 14 58  1  0  0  0
 14 15  1  0  0  0
 58 59  1  0  0  0
 59 60  1  0  0  0
 60 61  1  0  0  0
 61 62  1  0  0  0
 62 63  1  0  0  0
 62 64  1  0  0  0
 15 16  2  0  0  0
 15 17  1  0  0  0
 17 19  1  0  0  0
 17 18  1  0  0  0
 19 51  1  0  0  0
 19 20  1  0  0  0
 51 52  1  0  0  0
 52 53  1  0  0  0
 53 54  2  0  0  0
 53 55  1  0  0  0
 55 56  1  0  0  0
 55 57  1  0  0  0
 20 21  2  0  0  0
 20 22  1  0  0  0
 22 24  1  0  0  0
 22 23  1  0  0  0
 24 44  1  0  0  0
 24 25  1  0  0  0
 44 45  1  0  0  0
 45 49  1  0  0  0
 45 46  2  0  0  0
 46 47  1  0  0  0
 47 48  2  0  0  0
 48 49  1  0  0  0
 49 50  1  0  0  0
 25 26  2  0  0  0
 25 27  1  0  0  0
 27 29  1  0  0  0
 27 28  1  0  0  0
 29 41  1  0  0  0
 29 30  1  0  0  0
 41 42  1  0  0  0
 42 43  1  0  0  0
 30 31  2  0  0  0
 30 32  1  0  0  0
 32 36  1  0  0  0
 32 33  1  0  0  0
 33 34  1  0  0  0
 34 35  1  0  0  0
 35 36  1  0  0  0
 36 37  1  0  0  0
 37 38  1  0  0  0
 37 39  2  0  0  0
 38 40  1  0  0  0
 99100  1  0  0  0
 99101  1  0  0  0
100102  1  0  0  0
M  END
> <minimizedAffinity>
-5.03698

$$$$
