


126129  0  0  0  0  0  0  0  0999 V2000
   20.6466   26.8746   56.8356 C   0  0  0  0  0  0  0  0  0  0  0  0
   19.9072   26.9760   56.1700 C   0  0  0  0  0  0  0  0  0  0  0  0
   19.9562   26.5001   55.2919 C   0  0  0  0  0  0  0  0  0  0  0  0
   19.2167   26.6016   54.6263 C   0  0  0  0  0  0  0  0  0  0  0  0
   18.4283   27.1788   54.8389 C   0  0  0  0  0  0  0  0  0  0  0  0
   17.6889   27.2802   54.1733 O   0  0  0  0  0  0  0  0  0  0  0  0
   18.3793   27.6546   55.7170 C   0  0  0  0  0  0  0  0  0  0  0  0
   19.1187   27.5532   56.3826 C   0  0  0  0  0  0  0  0  0  0  0  0
   17.7348   26.8343   53.3505 H   0  0  0  0  0  0  0  0  0  0  0  0
   21.5991   26.9442   56.5392 C   0  0  0  0  0  0  0  0  0  0  0  0
   22.1086   27.7916   56.6887 O   0  0  0  0  0  0  0  0  0  0  0  0
   22.0421   26.1664   56.0934 N   0  0  0  0  0  0  0  0  0  0  0  0
   21.5405   25.3322   55.9463 H   0  0  0  0  0  0  0  0  0  0  0  0
   22.9947   26.2360   55.7970 C   0  0  0  0  0  0  0  0  0  0  0  0
   23.2094   26.3511   54.8271 C   0  0  0  0  0  0  0  0  0  0  0  0
   22.8826   25.6818   54.1598 O   0  0  0  0  0  0  0  0  0  0  0  0
   23.7509   27.1354   54.5246 N   0  0  0  0  0  0  0  0  0  0  0  0
   24.0726   27.7943   55.1815 H   0  0  0  0  0  0  0  0  0  0  0  0
   23.9657   27.2505   53.5547 C   0  0  0  0  0  0  0  0  0  0  0  0
   23.4011   27.8479   52.9851 C   0  0  0  0  0  0  0  0  0  0  0  0
   23.0910   27.5355   52.0872 O   0  0  0  0  0  0  0  0  0  0  0  0
   23.1467   28.7576   53.3134 N   0  0  0  0  0  0  0  0  0  0  0  0
   23.4521   29.0651   54.1974 H   0  0  0  0  0  0  0  0  0  0  0  0
   22.5822   29.3549   52.7438 C   0  0  0  0  0  0  0  0  0  0  0  0
   23.0113   30.0650   52.1854 C   0  0  0  0  0  0  0  0  0  0  0  0
   23.5700   30.7721   52.6186 O   0  0  0  0  0  0  0  0  0  0  0  0
   22.8815   30.0678   51.1939 N   0  0  0  0  0  0  0  0  0  0  0  0
   22.3314   29.3716   50.7675 H   0  0  0  0  0  0  0  0  0  0  0  0
   23.3106   30.7778   50.6355 C   0  0  0  0  0  0  0  0  0  0  0  0
   24.1469   30.5759   50.1259 C   0  0  0  0  0  0  0  0  0  0  0  0
   24.9975   31.0504   50.3525 O   0  0  0  0  0  0  0  0  0  0  0  0
   24.1327   29.8993   49.3896 N   0  0  0  0  0  0  0  0  0  0  0  0
   23.3364   29.3743   49.0891 C   0  0  0  0  0  0  0  0  0  0  0  0
   23.6239   28.7796   48.3383 C   0  0  0  0  0  0  0  0  0  0  0  0
   24.5978   28.9370   48.1749 C   0  0  0  0  0  0  0  0  0  0  0  0
   24.9123   29.6290   48.8247 C   0  0  0  0  0  0  0  0  0  0  0  0
   25.8429   29.9877   48.8968 C   0  0  0  0  0  0  0  0  0  0  0  0
   26.5052   29.5422   49.4992 O   0  0  0  0  0  0  0  0  0  0  0  0
   26.1112   30.7920   48.3665 O   0  0  0  0  0  0  0  0  0  0  0  0
   26.2538   28.7887   49.9960 H   0  0  0  0  0  0  0  0  0  0  0  0
   22.9033   31.6899   50.5868 C   0  0  0  0  0  0  0  0  0  0  0  0
   22.0819   31.8420   50.0371 S   0  0  0  0  0  0  0  0  0  0  0  0
   21.5187   30.8085   49.3557 H   0  0  0  0  0  0  0  0  0  0  0  0
   21.5887   29.2423   52.7325 C   0  0  0  0  0  0  0  0  0  0  0  0
   21.0164   29.7903   53.3425 C   0  0  0  0  0  0  0  0  0  0  0  0
   21.0844   29.8241   54.3397 C   0  0  0  0  0  0  0  0  0  0  0  0
   20.3857   30.4555   54.6759 N   0  0  0  0  0  0  0  0  0  0  0  0
   19.8856   30.8119   53.8866 C   0  0  0  0  0  0  0  0  0  0  0  0
   20.2755   30.4008   53.0625 N   0  0  0  0  0  0  0  0  0  0  0  0
   19.9814   30.5678   52.1379 H   0  0  0  0  0  0  0  0  0  0  0  0
   24.7449   26.7683   53.1545 C   0  0  0  0  0  0  0  0  0  0  0  0
   25.6751   27.0941   53.3236 C   0  0  0  0  0  0  0  0  0  0  0  0
   26.4450   26.4582   53.2703 C   0  0  0  0  0  0  0  0  0  0  0  0
   26.6648   25.8725   54.0505 O   0  0  0  0  0  0  0  0  0  0  0  0
   26.9953   26.4081   52.4368 N   0  0  0  0  0  0  0  0  0  0  0  0
   26.7789   26.9848   51.6688 H   0  0  0  0  0  0  0  0  0  0  0  0
   27.7533   25.7821   52.3843 H   0  0  0  0  0  0  0  0  0  0  0  0
   23.7324   26.1904   56.4705 C   0  0  0  0  0  0  0  0  0  0  0  0
   24.0470   25.3033   56.8083 C   0  0  0  0  0  0  0  0  0  0  0  0
   24.6578   25.2573   57.5987 C   0  0  0  0  0  0  0  0  0  0  0  0
   24.9663   24.3699   57.9412 C   0  0  0  0  0  0  0  0  0  0  0  0
   24.5749   23.9946   58.7815 N   0  0  0  0  0  0  0  0  0  0  0  0
   23.8609   24.5171   59.2892 H   0  0  0  0  0  0  0  0  0  0  0  0
   24.8896   23.0895   59.1308 H   0  0  0  0  0  0  0  0  0  0  0  0
   20.2644   25.7702   58.1139 C   0  0  0  0  0  0  0  0  0  0  0  0
   20.3084   25.0077   57.4684 O   0  0  0  0  0  0  0  0  0  0  0  0
   20.4334   26.7036   57.7975 N   0  0  0  0  0  0  0  0  0  0  0  0
   20.3901   27.4542   58.4330 H   0  0  0  0  0  0  0  0  0  0  0  0
   20.0513   25.5992   59.0759 C   0  0  0  0  0  0  0  0  0  0  0  0
   21.4761   25.5729   60.0602 C   0  0  0  0  0  0  0  0  0  0  0  0
   21.7718   24.7305   59.6098 O   0  0  0  0  0  0  0  0  0  0  0  0
   20.6159   26.0072   59.7933 N   0  0  0  0  0  0  0  0  0  0  0  0
   20.3247   26.8366   60.2367 H   0  0  0  0  0  0  0  0  0  0  0  0
   22.0407   25.9809   60.7777 C   0  0  0  0  0  0  0  0  0  0  0  0
   23.4302   27.0060   60.6410 C   0  0  0  0  0  0  0  0  0  0  0  0
   24.0271   26.2138   60.7678 O   0  0  0  0  0  0  0  0  0  0  0  0
   22.4370   26.8896   60.6459 N   0  0  0  0  0  0  0  0  0  0  0  0
   21.8493   27.6695   60.5211 H   0  0  0  0  0  0  0  0  0  0  0  0
   23.8265   27.9146   60.5093 C   0  0  0  0  0  0  0  0  0  0  0  0
   24.1321   28.4462   61.2992 C   0  0  0  0  0  0  0  0  0  0  0  0
   24.7407   28.7989   59.3337 C   0  0  0  0  0  0  0  0  0  0  0  0
   25.4736   28.9290   60.0014 O   0  0  0  0  0  0  0  0  0  0  0  0
   23.9171   28.2917   59.5876 N   0  0  0  0  0  0  0  0  0  0  0  0
   23.1956   28.1637   58.9301 H   0  0  0  0  0  0  0  0  0  0  0  0
   24.8314   29.1761   58.4119 C   0  0  0  0  0  0  0  0  0  0  0  0
   23.9733   30.6068   57.9465 C   0  0  0  0  0  0  0  0  0  0  0  0
   24.6854   31.1701   58.3655 O   0  0  0  0  0  0  0  0  0  0  0  0
   24.0464   29.6098   57.9696 N   0  0  0  0  0  0  0  0  0  0  0  0
   23.3454   29.0551   57.5571 H   0  0  0  0  0  0  0  0  0  0  0  0
   23.1883   31.0405   57.5042 C   0  0  0  0  0  0  0  0  0  0  0  0
   21.6666   30.9634   58.3280 C   0  0  0  0  0  0  0  0  0  0  0  0
   21.9693   31.6816   58.9545 O   0  0  0  0  0  0  0  0  0  0  0  0
   22.2761   30.6428   57.6029 N   0  0  0  0  0  0  0  0  0  0  0  0
   21.9781   29.9357   56.9861 H   0  0  0  0  0  0  0  0  0  0  0  0
   20.0511   30.7514   57.7404 N   0  0  0  0  0  0  0  0  0  0  0  0
   20.7544   30.5656   58.4266 C   0  0  0  0  0  0  0  0  0  0  0  0
   19.1207   30.3458   57.8410 H   0  0  0  0  0  0  0  0  0  0  0  0
   20.2642   31.3466   56.9399 H   0  0  0  0  0  0  0  0  0  0  0  0
   20.5455   29.9822   59.2114 C   0  0  0  0  0  0  0  0  0  0  0  0
   20.9889   29.0906   59.3036 O   0  0  0  0  0  0  0  0  0  0  0  0
   19.8932   30.2902   59.9039 C   0  0  0  0  0  0  0  0  0  0  0  0
   21.6216   28.7917   58.6318 H   0  0  0  0  0  0  0  0  0  0  0  0
   23.3154   31.8719   56.9633 C   0  0  0  0  0  0  0  0  0  0  0  0
   23.3479   31.8190   55.9653 C   0  0  0  0  0  0  0  0  0  0  0  0
   23.2517   32.6498   55.4171 C   0  0  0  0  0  0  0  0  0  0  0  0
   22.3872   33.1523   55.4182 O   0  0  0  0  0  0  0  0  0  0  0  0
   24.0201   32.9781   54.8677 N   0  0  0  0  0  0  0  0  0  0  0  0
   24.8713   32.4834   54.8667 H   0  0  0  0  0  0  0  0  0  0  0  0
   23.9254   33.7960   54.3280 H   0  0  0  0  0  0  0  0  0  0  0  0
   25.7071   29.1195   57.9324 C   0  0  0  0  0  0  0  0  0  0  0  0
   25.7846   28.5786   57.0949 C   0  0  0  0  0  0  0  0  0  0  0  0
   26.6761   28.4577   56.6585 C   0  0  0  0  0  0  0  0  0  0  0  0
   27.2228   27.6437   56.8552 O   0  0  0  0  0  0  0  0  0  0  0  0
   27.0211   29.1507   56.0254 N   0  0  0  0  0  0  0  0  0  0  0  0
   26.4829   29.9520   55.8318 H   0  0  0  0  0  0  0  0  0  0  0  0
   27.8989   29.0316   55.5958 H   0  0  0  0  0  0  0  0  0  0  0  0
   22.2091   25.4804   61.6268 C   0  0  0  0  0  0  0  0  0  0  0  0
   21.4724   25.3639   62.2930 O   0  0  0  0  0  0  0  0  0  0  0  0
   21.6358   24.8783   63.1167 H   0  0  0  0  0  0  0  0  0  0  0  0
   19.2735   25.0201   59.3204 C   0  0  0  0  0  0  0  0  0  0  0  0
   18.5941   25.3465   59.9776 C   0  0  0  0  0  0  0  0  0  0  0  0
   17.8914   26.0362   59.8030 C   0  0  0  0  0  0  0  0  0  0  0  0
   17.3612   26.1565   60.6424 N   0  0  0  0  0  0  0  0  0  0  0  0
   17.7363   25.5411   61.3357 C   0  0  0  0  0  0  0  0  0  0  0  0
   18.4983   25.0405   60.9248 N   0  0  0  0  0  0  0  0  0  0  0  0
   19.0561   24.3650   61.3740 H   0  0  0  0  0  0  0  0  0  0  0  0
 95 96  1  0  0  0
 95 97  1  0  0  0
 95 98  1  0  0  0
 96 91  1  0  0  0
 96 99  1  0  0  0
 91 92  2  0  0  0
 91 93  1  0  0  0
 93 90  1  0  0  0
 93 94  1  0  0  0
 90103  1  0  0  0
 90 86  1  0  0  0
103104  1  0  0  0
104105  1  0  0  0
105106  2  0  0  0
105107  1  0  0  0
107108  1  0  0  0
107109  1  0  0  0
 86 87  2  0  0  0
 86 88  1  0  0  0
 88 85  1  0  0  0
 88 89  1  0  0  0
 85110  1  0  0  0
 85 81  1  0  0  0
110111  1  0  0  0
111112  1  0  0  0
112113  2  0  0  0
112114  1  0  0  0
114115  1  0  0  0
114116  1  0  0  0
 81 82  2  0  0  0
 81 83  1  0  0  0
 83 79  1  0  0  0
 83 84  1  0  0  0
 79 80  1  0  0  0
 79 75  1  0  0  0
 75 76  2  0  0  0
 75 77  1  0  0  0
 77 74  1  0  0  0
 77 78  1  0  0  0
 74117  1  0  0  0
 74 70  1  0  0  0
117118  1  0  0  0
118119  1  0  0  0
 70 71  2  0  0  0
 70 72  1  0  0  0
 72 69  1  0  0  0
 72 73  1  0  0  0
 69120  1  0  0  0
 69 65  1  0  0  0
120121  1  0  0  0
121125  1  0  0  0
121122  2  0  0  0
122123  1  0  0  0
123124  2  0  0  0
124125  1  0  0  0
125126  1  0  0  0
 65 66  2  0  0  0
 65 67  1  0  0  0
 67  1  1  0  0  0
 67 68  1  0  0  0
  1  2  1  0  0  0
  1 10  1  0  0  0
  2  8  2  0  0  0
  2  3  1  0  0  0
  3  4  2  0  0  0
  4  5  1  0  0  0
  5  6  1  0  0  0
  5  7  2  0  0  0
  6  9  1  0  0  0
  7  8  1  0  0  0
 10 11  2  0  0  0
 10 12  1  0  0  0
 12 14  1  0  0  0
 12 13  1  0  0  0
 14 58  1  0  0  0
 14 15  1  0  0  0
 58 59  1  0  0  0
 59 60  1  0  0  0
 60 61  1  0  0  0
 61 62  1  0  0  0
 62 63  1  0  0  0
 62 64  1  0  0  0
 15 16  2  0  0  0
 15 17  1  0  0  0
 17 19  1  0  0  0
 17 18  1  0  0  0
 19 51  1  0  0  0
 19 20  1  0  0  0
 51 52  1  0  0  0
 52 53  1  0  0  0
 53 54  2  0  0  0
 53 55  1  0  0  0
 55 56  1  0  0  0
 55 57  1  0  0  0
 20 21  2  0  0  0
 20 22  1  0  0  0
 22 24  1  0  0  0
 22 23  1  0  0  0
 24 44  1  0  0  0
 24 25  1  0  0  0
 44 45  1  0  0  0
 45 49  1  0  0  0
 45 46  2  0  0  0
 46 47  1  0  0  0
 47 48  2  0  0  0
 48 49  1  0  0  0
 49 50  1  0  0  0
 25 26  2  0  0  0
 25 27  1  0  0  0
 27 29  1  0  0  0
 27 28  1  0  0  0
 29 41  1  0  0  0
 29 30  1  0  0  0
 41 42  1  0  0  0
 42 43  1  0  0  0
 30 31  2  0  0  0
 30 32  1  0  0  0
 32 36  1  0  0  0
 32 33  1  0  0  0
 33 34  1  0  0  0
 34 35  1  0  0  0
 35 36  1  0  0  0
 36 37  1  0  0  0
 37 38  1  0  0  0
 37 39  2  0  0  0
 38 40  1  0  0  0
 99100  1  0  0  0
 99101  1  0  0  0
100102  1  0  0  0
M  END
> <minimizedAffinity>
-4.19574

$$$$



126129  0  0  0  0  0  0  0  0999 V2000
   23.9611   25.8516   53.6275 C   0  0  0  0  0  0  0  0  0  0  0  0
   23.0446   26.2370   53.7350 C   0  0  0  0  0  0  0  0  0  0  0  0
   22.8689   27.1877   53.4798 C   0  0  0  0  0  0  0  0  0  0  0  0
   21.9523   27.5731   53.5872 C   0  0  0  0  0  0  0  0  0  0  0  0
   21.2116   27.0076   53.9499 C   0  0  0  0  0  0  0  0  0  0  0  0
   20.2951   27.3930   54.0573 O   0  0  0  0  0  0  0  0  0  0  0  0
   21.3873   26.0569   54.2051 C   0  0  0  0  0  0  0  0  0  0  0  0
   22.3038   25.6715   54.0976 C   0  0  0  0  0  0  0  0  0  0  0  0
   20.1305   28.2839   53.8182 H   0  0  0  0  0  0  0  0  0  0  0  0
   24.2014   25.3588   52.7912 C   0  0  0  0  0  0  0  0  0  0  0  0
   23.6240   24.6083   52.4697 O   0  0  0  0  0  0  0  0  0  0  0  0
   25.0190   25.6165   52.2765 N   0  0  0  0  0  0  0  0  0  0  0  0
   25.5874   26.3554   52.5930 H   0  0  0  0  0  0  0  0  0  0  0  0
   25.2593   25.1237   51.4401 C   0  0  0  0  0  0  0  0  0  0  0  0
   25.2451   25.5969   50.5593 C   0  0  0  0  0  0  0  0  0  0  0  0
   24.4712   25.4739   49.9381 O   0  0  0  0  0  0  0  0  0  0  0  0
   26.0047   26.1932   50.2997 N   0  0  0  0  0  0  0  0  0  0  0  0
   26.7666   26.3144   50.9113 H   0  0  0  0  0  0  0  0  0  0  0  0
   25.9904   26.6664   49.4189 C   0  0  0  0  0  0  0  0  0  0  0  0
   25.7837   27.6440   49.3798 C   0  0  0  0  0  0  0  0  0  0  0  0
   25.5076   28.0625   48.5146 O   0  0  0  0  0  0  0  0  0  0  0  0
   25.8530   28.2032   50.2060 N   0  0  0  0  0  0  0  0  0  0  0  0
   26.1248   27.7912   51.0579 H   0  0  0  0  0  0  0  0  0  0  0  0
   25.6463   29.1808   50.1670 C   0  0  0  0  0  0  0  0  0  0  0  0
   24.7006   29.4954   50.2479 C   0  0  0  0  0  0  0  0  0  0  0  0
   24.0360   28.9543   50.7631 O   0  0  0  0  0  0  0  0  0  0  0  0
   24.4194   30.3513   49.8137 N   0  0  0  0  0  0  0  0  0  0  0  0
   25.0738   30.8840   49.3066 H   0  0  0  0  0  0  0  0  0  0  0  0
   23.4737   30.6659   49.8947 C   0  0  0  0  0  0  0  0  0  0  0  0
   23.2025   31.2413   50.6663 C   0  0  0  0  0  0  0  0  0  0  0  0
   22.5770   30.8849   51.3603 O   0  0  0  0  0  0  0  0  0  0  0  0
   23.5569   32.1733   50.7438 N   0  0  0  0  0  0  0  0  0  0  0  0
   24.1840   32.6187   50.1048 C   0  0  0  0  0  0  0  0  0  0  0  0
   24.3609   33.5441   50.4401 C   0  0  0  0  0  0  0  0  0  0  0  0
   23.8432   33.6705   51.2862 C   0  0  0  0  0  0  0  0  0  0  0  0
   23.3463   32.8233   51.4739 C   0  0  0  0  0  0  0  0  0  0  0  0
   22.7445   32.6556   52.2547 C   0  0  0  0  0  0  0  0  0  0  0  0
   21.7701   32.8712   52.1903 O   0  0  0  0  0  0  0  0  0  0  0  0
   23.1169   32.2722   53.0999 O   0  0  0  0  0  0  0  0  0  0  0  0
   21.4211   33.2303   51.3984 H   0  0  0  0  0  0  0  0  0  0  0  0
   22.7991   30.4051   49.2040 C   0  0  0  0  0  0  0  0  0  0  0  0
   22.9084   30.7102   48.2580 S   0  0  0  0  0  0  0  0  0  0  0  0
   23.9745   31.4799   47.9106 H   0  0  0  0  0  0  0  0  0  0  0  0
   26.3853   29.8437   50.0470 C   0  0  0  0  0  0  0  0  0  0  0  0
   27.0503   29.9893   50.7795 C   0  0  0  0  0  0  0  0  0  0  0  0
   28.0221   29.7558   50.7461 C   0  0  0  0  0  0  0  0  0  0  0  0
   28.4327   30.0161   51.6199 N   0  0  0  0  0  0  0  0  0  0  0  0
   27.7146   30.4104   52.1935 C   0  0  0  0  0  0  0  0  0  0  0  0
   26.8602   30.3938   51.6740 N   0  0  0  0  0  0  0  0  0  0  0  0
   25.9856   30.7188   51.9882 H   0  0  0  0  0  0  0  0  0  0  0  0
   26.1829   26.1620   48.5771 C   0  0  0  0  0  0  0  0  0  0  0  0
   27.1164   25.8672   48.3732 C   0  0  0  0  0  0  0  0  0  0  0  0
   27.3008   25.3196   47.5571 C   0  0  0  0  0  0  0  0  0  0  0  0
   27.3583   25.7607   46.6614 O   0  0  0  0  0  0  0  0  0  0  0  0
   27.4278   24.3309   47.6366 N   0  0  0  0  0  0  0  0  0  0  0  0
   27.3713   23.8967   48.5184 H   0  0  0  0  0  0  0  0  0  0  0  0
   27.6094   23.7917   46.8331 H   0  0  0  0  0  0  0  0  0  0  0  0
   25.5139   24.1577   51.4846 C   0  0  0  0  0  0  0  0  0  0  0  0
   26.4768   23.8972   51.5559 C   0  0  0  0  0  0  0  0  0  0  0  0
   26.7731   22.9907   51.2549 C   0  0  0  0  0  0  0  0  0  0  0  0
   27.7003   22.8585   50.9046 C   0  0  0  0  0  0  0  0  0  0  0  0
   27.8422   22.4091   50.0226 N   0  0  0  0  0  0  0  0  0  0  0  0
   27.0411   22.0856   49.4803 H   0  0  0  0  0  0  0  0  0  0  0  0
   28.7880   22.2743   49.6652 H   0  0  0  0  0  0  0  0  0  0  0  0
   24.8672   25.1829   54.9435 C   0  0  0  0  0  0  0  0  0  0  0  0
   24.4209   24.2993   54.8018 O   0  0  0  0  0  0  0  0  0  0  0  0
   24.6373   25.9591   54.3564 N   0  0  0  0  0  0  0  0  0  0  0  0
   25.0766   26.8290   54.4958 H   0  0  0  0  0  0  0  0  0  0  0  0
   25.5434   25.2904   55.6723 C   0  0  0  0  0  0  0  0  0  0  0  0
   25.0302   26.2160   57.0434 C   0  0  0  0  0  0  0  0  0  0  0  0
   24.4592   25.4526   57.3451 O   0  0  0  0  0  0  0  0  0  0  0  0
   25.5723   26.1349   56.2070 N   0  0  0  0  0  0  0  0  0  0  0  0
   26.1345   26.8866   55.9099 H   0  0  0  0  0  0  0  0  0  0  0  0
   25.0592   27.0606   57.5781 C   0  0  0  0  0  0  0  0  0  0  0  0
   24.7703   28.6850   57.0509 C   0  0  0  0  0  0  0  0  0  0  0  0
   25.7539   28.8220   56.9341 O   0  0  0  0  0  0  0  0  0  0  0  0
   24.4229   27.8043   57.3729 N   0  0  0  0  0  0  0  0  0  0  0  0
   23.4545   27.6694   57.4880 H   0  0  0  0  0  0  0  0  0  0  0  0
   24.1341   29.4287   56.8458 C   0  0  0  0  0  0  0  0  0  0  0  0
   24.4580   30.3747   56.8334 C   0  0  0  0  0  0  0  0  0  0  0  0
   22.4844   29.9455   56.7392 C   0  0  0  0  0  0  0  0  0  0  0  0
   22.7550   30.8669   57.0182 O   0  0  0  0  0  0  0  0  0  0  0  0
   23.1739   29.2264   56.6530 N   0  0  0  0  0  0  0  0  0  0  0  0
   22.9075   28.3193   56.3784 H   0  0  0  0  0  0  0  0  0  0  0  0
   21.5242   29.7433   56.5465 C   0  0  0  0  0  0  0  0  0  0  0  0
   20.6578   28.6686   57.5927 C   0  0  0  0  0  0  0  0  0  0  0  0
   20.5282   29.4120   58.2489 O   0  0  0  0  0  0  0  0  0  0  0  0
   21.1558   28.8343   56.7415 N   0  0  0  0  0  0  0  0  0  0  0  0
   21.2834   28.1025   56.0954 H   0  0  0  0  0  0  0  0  0  0  0  0
   20.2894   27.7597   57.7877 C   0  0  0  0  0  0  0  0  0  0  0  0
   21.2541   26.5565   58.5762 C   0  0  0  0  0  0  0  0  0  0  0  0
   21.6726   26.3178   57.6999 O   0  0  0  0  0  0  0  0  0  0  0  0
   20.5625   27.2775   58.6201 N   0  0  0  0  0  0  0  0  0  0  0  0
   20.1505   27.5125   59.4828 H   0  0  0  0  0  0  0  0  0  0  0  0
   22.4617   26.1624   59.7537 N   0  0  0  0  0  0  0  0  0  0  0  0
   21.5273   26.0743   59.4086 C   0  0  0  0  0  0  0  0  0  0  0  0
   22.7403   25.6706   60.6027 H   0  0  0  0  0  0  0  0  0  0  0  0
   23.1362   26.7441   59.2566 H   0  0  0  0  0  0  0  0  0  0  0  0
   20.8660   25.5041   59.8960 C   0  0  0  0  0  0  0  0  0  0  0  0
   20.5430   24.6512   59.4857 O   0  0  0  0  0  0  0  0  0  0  0  0
   20.5277   25.7867   60.7936 C   0  0  0  0  0  0  0  0  0  0  0  0
   20.8711   24.3771   58.6150 H   0  0  0  0  0  0  0  0  0  0  0  0
   19.6478   27.3329   57.1503 C   0  0  0  0  0  0  0  0  0  0  0  0
   18.6772   27.2730   57.3831 C   0  0  0  0  0  0  0  0  0  0  0  0
   18.0672   26.6965   56.8392 C   0  0  0  0  0  0  0  0  0  0  0  0
   17.8940   26.9177   55.8795 O   0  0  0  0  0  0  0  0  0  0  0  0
   17.6304   25.8989   57.2552 N   0  0  0  0  0  0  0  0  0  0  0  0
   17.8010   25.6811   58.2000 H   0  0  0  0  0  0  0  0  0  0  0  0
   17.0300   25.3314   56.7198 H   0  0  0  0  0  0  0  0  0  0  0  0
   20.9324   30.4500   56.1588 C   0  0  0  0  0  0  0  0  0  0  0  0
   20.7929   30.4980   55.1697 C   0  0  0  0  0  0  0  0  0  0  0  0
   20.2520   31.2415   54.7766 C   0  0  0  0  0  0  0  0  0  0  0  0
   19.8717   31.1507   53.8562 O   0  0  0  0  0  0  0  0  0  0  0  0
   20.0913   32.0759   55.3039 N   0  0  0  0  0  0  0  0  0  0  0  0
   20.4656   32.1653   56.2100 H   0  0  0  0  0  0  0  0  0  0  0  0
   19.5587   32.8079   54.9168 H   0  0  0  0  0  0  0  0  0  0  0  0
   25.7244   27.1614   58.3179 C   0  0  0  0  0  0  0  0  0  0  0  0
   25.4753   26.9069   59.2523 O   0  0  0  0  0  0  0  0  0  0  0  0
   26.1206   27.0047   59.9700 H   0  0  0  0  0  0  0  0  0  0  0  0
   26.1907   24.5532   55.8665 C   0  0  0  0  0  0  0  0  0  0  0  0
   27.1519   24.6511   55.6089 C   0  0  0  0  0  0  0  0  0  0  0  0
   27.9074   24.8652   56.2281 C   0  0  0  0  0  0  0  0  0  0  0  0
   28.7490   24.8985   55.6888 N   0  0  0  0  0  0  0  0  0  0  0  0
   28.5135   24.7050   54.7363 C   0  0  0  0  0  0  0  0  0  0  0  0
   27.5264   24.5521   54.6871 N   0  0  0  0  0  0  0  0  0  0  0  0
   27.0135   24.3410   53.8737 H   0  0  0  0  0  0  0  0  0  0  0  0
 95 96  1  0  0  0
 95 97  1  0  0  0
 95 98  1  0  0  0
 96 91  1  0  0  0
 96 99  1  0  0  0
 91 92  2  0  0  0
 91 93  1  0  0  0
 93 90  1  0  0  0
 93 94  1  0  0  0
 90103  1  0  0  0
 90 86  1  0  0  0
103104  1  0  0  0
104105  1  0  0  0
105106  2  0  0  0
105107  1  0  0  0
107108  1  0  0  0
107109  1  0  0  0
 86 87  2  0  0  0
 86 88  1  0  0  0
 88 85  1  0  0  0
 88 89  1  0  0  0
 85110  1  0  0  0
 85 81  1  0  0  0
110111  1  0  0  0
111112  1  0  0  0
112113  2  0  0  0
112114  1  0  0  0
114115  1  0  0  0
114116  1  0  0  0
 81 82  2  0  0  0
 81 83  1  0  0  0
 83 79  1  0  0  0
 83 84  1  0  0  0
 79 80  1  0  0  0
 79 75  1  0  0  0
 75 76  2  0  0  0
 75 77  1  0  0  0
 77 74  1  0  0  0
 77 78  1  0  0  0
 74117  1  0  0  0
 74 70  1  0  0  0
117118  1  0  0  0
118119  1  0  0  0
 70 71  2  0  0  0
 70 72  1  0  0  0
 72 69  1  0  0  0
 72 73  1  0  0  0
 69120  1  0  0  0
 69 65  1  0  0  0
120121  1  0  0  0
121125  1  0  0  0
121122  2  0  0  0
122123  1  0  0  0
123124  2  0  0  0
124125  1  0  0  0
125126  1  0  0  0
 65 66  2  0  0  0
 65 67  1  0  0  0
 67  1  1  0  0  0
 67 68  1  0  0  0
  1  2  1  0  0  0
  1 10  1  0  0  0
  2  8  2  0  0  0
  2  3  1  0  0  0
  3  4  2  0  0  0
  4  5  1  0  0  0
  5  6  1  0  0  0
  5  7  2  0  0  0
  6  9  1  0  0  0
  7  8  1  0  0  0
 10 11  2  0  0  0
 10 12  1  0  0  0
 12 14  1  0  0  0
 12 13  1  0  0  0
 14 58  1  0  0  0
 14 15  1  0  0  0
 58 59  1  0  0  0
 59 60  1  0  0  0
 60 61  1  0  0  0
 61 62  1  0  0  0
 62 63  1  0  0  0
 62 64  1  0  0  0
 15 16  2  0  0  0
 15 17  1  0  0  0
 17 19  1  0  0  0
 17 18  1  0  0  0
 19 51  1  0  0  0
 19 20  1  0  0  0
 51 52  1  0  0  0
 52 53  1  0  0  0
 53 54  2  0  0  0
 53 55  1  0  0  0
 55 56  1  0  0  0
 55 57  1  0  0  0
 20 21  2  0  0  0
 20 22  1  0  0  0
 22 24  1  0  0  0
 22 23  1  0  0  0
 24 44  1  0  0  0
 24 25  1  0  0  0
 44 45  1  0  0  0
 45 49  1  0  0  0
 45 46  2  0  0  0
 46 47  1  0  0  0
 47 48  2  0  0  0
 48 49  1  0  0  0
 49 50  1  0  0  0
 25 26  2  0  0  0
 25 27  1  0  0  0
 27 29  1  0  0  0
 27 28  1  0  0  0
 29 41  1  0  0  0
 29 30  1  0  0  0
 41 42  1  0  0  0
 42 43  1  0  0  0
 30 31  2  0  0  0
 30 32  1  0  0  0
 32 36  1  0  0  0
 32 33  1  0  0  0
 33 34  1  0  0  0
 34 35  1  0  0  0
 35 36  1  0  0  0
 36 37  1  0  0  0
 37 38  1  0  0  0
 37 39  2  0  0  0
 38 40  1  0  0  0
 99100  1  0  0  0
 99101  1  0  0  0
100102  1  0  0  0
M  END
> <minimizedAffinity>
-3.84866

$$$$



126129  0  0  0  0  0  0  0  0999 V2000
   21.6167   29.0942   53.2107 C   0  0  0  0  0  0  0  0  0  0  0  0
   20.9970   29.8775   53.2595 C   0  0  0  0  0  0  0  0  0  0  0  0
   20.1028   29.8361   52.8138 C   0  0  0  0  0  0  0  0  0  0  0  0
   19.4830   30.6194   52.8626 C   0  0  0  0  0  0  0  0  0  0  0  0
   19.7574   31.4441   53.3571 C   0  0  0  0  0  0  0  0  0  0  0  0
   19.1377   32.2273   53.4059 O   0  0  0  0  0  0  0  0  0  0  0  0
   20.6517   31.4855   53.8028 C   0  0  0  0  0  0  0  0  0  0  0  0
   21.2714   30.7023   53.7541 C   0  0  0  0  0  0  0  0  0  0  0  0
   18.2998   32.1885   52.9883 H   0  0  0  0  0  0  0  0  0  0  0  0
   21.7197   28.4882   53.9994 C   0  0  0  0  0  0  0  0  0  0  0  0
   21.7002   27.4964   53.8738 O   0  0  0  0  0  0  0  0  0  0  0  0
   21.8420   28.8741   54.9138 N   0  0  0  0  0  0  0  0  0  0  0  0
   21.8612   29.8506   55.0375 H   0  0  0  0  0  0  0  0  0  0  0  0
   21.9450   28.2681   55.7027 C   0  0  0  0  0  0  0  0  0  0  0  0
   21.1451   28.0162   56.2474 C   0  0  0  0  0  0  0  0  0  0  0  0
   20.6075   28.7252   56.7037 O   0  0  0  0  0  0  0  0  0  0  0  0
   20.8828   27.0552   56.3358 N   0  0  0  0  0  0  0  0  0  0  0  0
   21.4121   26.3572   55.8865 H   0  0  0  0  0  0  0  0  0  0  0  0
   20.0830   26.8033   56.8805 C   0  0  0  0  0  0  0  0  0  0  0  0
   20.2003   26.3098   57.7423 C   0  0  0  0  0  0  0  0  0  0  0  0
   20.9070   25.6071   57.8239 O   0  0  0  0  0  0  0  0  0  0  0  0
   19.6107   26.5190   58.5225 N   0  0  0  0  0  0  0  0  0  0  0  0
   18.9149   27.2108   58.4422 H   0  0  0  0  0  0  0  0  0  0  0  0
   19.7280   26.0255   59.3843 C   0  0  0  0  0  0  0  0  0  0  0  0
   20.2438   26.4422   60.1328 C   0  0  0  0  0  0  0  0  0  0  0  0
   20.7750   25.8669   60.7549 O   0  0  0  0  0  0  0  0  0  0  0  0
   20.2285   27.4340   60.2593 N   0  0  0  0  0  0  0  0  0  0  0  0
   19.7055   28.0003   59.6469 H   0  0  0  0  0  0  0  0  0  0  0  0
   20.7443   27.8506   61.0078 C   0  0  0  0  0  0  0  0  0  0  0  0
   21.6744   28.1824   60.8502 C   0  0  0  0  0  0  0  0  0  0  0  0
   22.4521   27.7016   61.2550 O   0  0  0  0  0  0  0  0  0  0  0  0
   21.8267   28.9951   60.2877 N   0  0  0  0  0  0  0  0  0  0  0  0
   21.1185   29.5424   59.8416 C   0  0  0  0  0  0  0  0  0  0  0  0
   21.5682   30.2887   59.3508 C   0  0  0  0  0  0  0  0  0  0  0  0
   22.5542   30.2026   59.4935 C   0  0  0  0  0  0  0  0  0  0  0  0
   22.7140   29.4031   60.0725 C   0  0  0  0  0  0  0  0  0  0  0  0
   23.6046   29.0702   60.3821 C   0  0  0  0  0  0  0  0  0  0  0  0
   24.0266   29.4587   61.2012 O   0  0  0  0  0  0  0  0  0  0  0  0
   24.0734   28.3486   59.8725 O   0  0  0  0  0  0  0  0  0  0  0  0
   23.5873   30.1348   61.6787 H   0  0  0  0  0  0  0  0  0  0  0  0
   20.3300   27.9355   61.9141 C   0  0  0  0  0  0  0  0  0  0  0  0
   19.4771   28.4448   62.0283 S   0  0  0  0  0  0  0  0  0  0  0  0
   18.8803   29.0220   60.9511 H   0  0  0  0  0  0  0  0  0  0  0  0
   19.3294   25.1154   59.4976 C   0  0  0  0  0  0  0  0  0  0  0  0
   18.3396   25.0116   59.5949 C   0  0  0  0  0  0  0  0  0  0  0  0
   17.7887   25.3267   60.3677 C   0  0  0  0  0  0  0  0  0  0  0  0
   16.8356   25.0843   60.1870 N   0  0  0  0  0  0  0  0  0  0  0  0
   16.7973   24.6193   59.3025 C   0  0  0  0  0  0  0  0  0  0  0  0
   17.7269   24.5744   58.9366 N   0  0  0  0  0  0  0  0  0  0  0  0
   17.9922   24.1706   58.0788 H   0  0  0  0  0  0  0  0  0  0  0  0
   19.1659   27.0448   56.5634 C   0  0  0  0  0  0  0  0  0  0  0  0
   18.7476   26.5377   55.8098 C   0  0  0  0  0  0  0  0  0  0  0  0
   17.9435   26.9071   55.3440 C   0  0  0  0  0  0  0  0  0  0  0  0
   17.0550   26.9050   55.8029 O   0  0  0  0  0  0  0  0  0  0  0  0
   18.0279   27.2786   54.4194 N   0  0  0  0  0  0  0  0  0  0  0  0
   18.9027   27.2806   53.9678 H   0  0  0  0  0  0  0  0  0  0  0  0
   17.2363   27.6422   53.9609 H   0  0  0  0  0  0  0  0  0  0  0  0
   22.8478   27.9141   55.9467 C   0  0  0  0  0  0  0  0  0  0  0  0
   23.5255   28.5187   56.3654 C   0  0  0  0  0  0  0  0  0  0  0  0
   24.4990   28.3808   56.1828 C   0  0  0  0  0  0  0  0  0  0  0  0
   25.1772   28.6248   56.8760 C   0  0  0  0  0  0  0  0  0  0  0  0
   26.0993   28.2407   56.8303 N   0  0  0  0  0  0  0  0  0  0  0  0
   26.3482   27.6000   56.0767 H   0  0  0  0  0  0  0  0  0  0  0  0
   26.7910   28.4896   57.5374 H   0  0  0  0  0  0  0  0  0  0  0  0
   23.0417   29.3177   52.2518 C   0  0  0  0  0  0  0  0  0  0  0  0
   23.4330   29.8957   52.9679 O   0  0  0  0  0  0  0  0  0  0  0  0
   22.1336   28.9170   52.3732 N   0  0  0  0  0  0  0  0  0  0  0  0
   21.7483   28.3480   51.6682 H   0  0  0  0  0  0  0  0  0  0  0  0
   23.5585   29.1405   51.4142 C   0  0  0  0  0  0  0  0  0  0  0  0
   24.5362   27.7129   51.3361 C   0  0  0  0  0  0  0  0  0  0  0  0
   25.2396   28.1646   51.8849 O   0  0  0  0  0  0  0  0  0  0  0  0
   23.6957   28.2009   51.1007 N   0  0  0  0  0  0  0  0  0  0  0  0
   23.0032   27.7562   50.5604 H   0  0  0  0  0  0  0  0  0  0  0  0
   24.6734   26.7733   51.0226 C   0  0  0  0  0  0  0  0  0  0  0  0
   24.5495   25.4455   52.1278 C   0  0  0  0  0  0  0  0  0  0  0  0
   23.5545   25.4564   52.0293 O   0  0  0  0  0  0  0  0  0  0  0  0
   25.1090   26.1039   51.6244 N   0  0  0  0  0  0  0  0  0  0  0  0
   26.0886   26.0933   51.7213 H   0  0  0  0  0  0  0  0  0  0  0  0
   24.9851   24.7761   52.7296 C   0  0  0  0  0  0  0  0  0  0  0  0
   24.5336   23.9037   52.9168 C   0  0  0  0  0  0  0  0  0  0  0  0
   25.9199   25.3036   54.0889 C   0  0  0  0  0  0  0  0  0  0  0  0
   25.0807   25.4249   54.6190 O   0  0  0  0  0  0  0  0  0  0  0  0
   25.8721   24.9792   53.1442 N   0  0  0  0  0  0  0  0  0  0  0  0
   26.6983   24.8597   52.6224 H   0  0  0  0  0  0  0  0  0  0  0  0
   26.8070   25.5066   54.5036 C   0  0  0  0  0  0  0  0  0  0  0  0
   27.2820   24.7074   55.9650 C   0  0  0  0  0  0  0  0  0  0  0  0
   27.5607   23.9059   55.4360 O   0  0  0  0  0  0  0  0  0  0  0  0
   26.9052   25.5078   55.4988 N   0  0  0  0  0  0  0  0  0  0  0  0
   26.6308   26.2969   56.0195 H   0  0  0  0  0  0  0  0  0  0  0  0
   27.3802   24.7086   56.9601 C   0  0  0  0  0  0  0  0  0  0  0  0
   26.0024   24.7436   58.0092 C   0  0  0  0  0  0  0  0  0  0  0  0
   25.9148   23.7508   57.9274 O   0  0  0  0  0  0  0  0  0  0  0  0
   26.7351   25.2225   57.5256 N   0  0  0  0  0  0  0  0  0  0  0  0
   26.8213   26.1999   57.6061 H   0  0  0  0  0  0  0  0  0  0  0  0
   25.6954   25.9279   59.2353 N   0  0  0  0  0  0  0  0  0  0  0  0
   25.3573   25.2576   58.5747 C   0  0  0  0  0  0  0  0  0  0  0  0
   25.0375   26.4521   59.8121 H   0  0  0  0  0  0  0  0  0  0  0  0
   26.6982   26.0874   59.3323 H   0  0  0  0  0  0  0  0  0  0  0  0
   24.3742   25.1012   58.4796 C   0  0  0  0  0  0  0  0  0  0  0  0
   23.9464   25.1426   57.5767 O   0  0  0  0  0  0  0  0  0  0  0  0
   23.8190   24.9035   59.2874 C   0  0  0  0  0  0  0  0  0  0  0  0
   24.4851   25.3345   56.7931 H   0  0  0  0  0  0  0  0  0  0  0  0
   28.1234   24.1958   57.3899 C   0  0  0  0  0  0  0  0  0  0  0  0
   28.9395   24.6747   57.7132 C   0  0  0  0  0  0  0  0  0  0  0  0
   29.7041   24.1568   58.0970 C   0  0  0  0  0  0  0  0  0  0  0  0
   30.6232   24.2679   57.7190 O   0  0  0  0  0  0  0  0  0  0  0  0
   29.5495   23.5277   58.8588 N   0  0  0  0  0  0  0  0  0  0  0  0
   28.6446   23.4183   59.2309 H   0  0  0  0  0  0  0  0  0  0  0  0
   30.3021   23.0179   59.2367 H   0  0  0  0  0  0  0  0  0  0  0  0
   27.5958   25.7085   53.9231 C   0  0  0  0  0  0  0  0  0  0  0  0
   27.9163   26.6507   53.8251 C   0  0  0  0  0  0  0  0  0  0  0  0
   28.5492   26.8894   53.0886 C   0  0  0  0  0  0  0  0  0  0  0  0
   28.2433   26.8593   52.1370 O   0  0  0  0  0  0  0  0  0  0  0  0
   29.4882   27.1581   53.3036 N   0  0  0  0  0  0  0  0  0  0  0  0
   29.7894   27.1877   54.2405 H   0  0  0  0  0  0  0  0  0  0  0  0
   30.1113   27.3931   52.5785 H   0  0  0  0  0  0  0  0  0  0  0  0
   24.3750   26.5031   50.1072 C   0  0  0  0  0  0  0  0  0  0  0  0
   25.0342   26.4695   49.3560 O   0  0  0  0  0  0  0  0  0  0  0  0
   24.7447   26.2073   48.4680 H   0  0  0  0  0  0  0  0  0  0  0  0
   23.9382   29.9029   50.8902 C   0  0  0  0  0  0  0  0  0  0  0  0
   23.4400   30.2655   50.1026 C   0  0  0  0  0  0  0  0  0  0  0  0
   23.4976   29.9262   49.1637 C   0  0  0  0  0  0  0  0  0  0  0  0
   22.8900   30.4820   48.5963 N   0  0  0  0  0  0  0  0  0  0  0  0
   22.4568   31.1649   49.1847 C   0  0  0  0  0  0  0  0  0  0  0  0
   22.7968   31.0310   50.1156 N   0  0  0  0  0  0  0  0  0  0  0  0
   22.5428   31.5601   50.9060 H   0  0  0  0  0  0  0  0  0  0  0  0
 95 96  1  0  0  0
 95 97  1  0  0  0
 95 98  1  0  0  0
 96 91  1  0  0  0
 96 99  1  0  0  0
 91 92  2  0  0  0
 91 93  1  0  0  0
 93 90  1  0  0  0
 93 94  1  0  0  0
 90103  1  0  0  0
 90 86  1  0  0  0
103104  1  0  0  0
104105  1  0  0  0
105106  2  0  0  0
105107  1  0  0  0
107108  1  0  0  0
107109  1  0  0  0
 86 87  2  0  0  0
 86 88  1  0  0  0
 88 85  1  0  0  0
 88 89  1  0  0  0
 85110  1  0  0  0
 85 81  1  0  0  0
110111  1  0  0  0
111112  1  0  0  0
112113  2  0  0  0
112114  1  0  0  0
114115  1  0  0  0
114116  1  0  0  0
 81 82  2  0  0  0
 81 83  1  0  0  0
 83 79  1  0  0  0
 83 84  1  0  0  0
 79 80  1  0  0  0
 79 75  1  0  0  0
 75 76  2  0  0  0
 75 77  1  0  0  0
 77 74  1  0  0  0
 77 78  1  0  0  0
 74117  1  0  0  0
 74 70  1  0  0  0
117118  1  0  0  0
118119  1  0  0  0
 70 71  2  0  0  0
 70 72  1  0  0  0
 72 69  1  0  0  0
 72 73  1  0  0  0
 69120  1  0  0  0
 69 65  1  0  0  0
120121  1  0  0  0
121125  1  0  0  0
121122  2  0  0  0
122123  1  0  0  0
123124  2  0  0  0
124125  1  0  0  0
125126  1  0  0  0
 65 66  2  0  0  0
 65 67  1  0  0  0
 67  1  1  0  0  0
 67 68  1  0  0  0
  1  2  1  0  0  0
  1 10  1  0  0  0
  2  8  2  0  0  0
  2  3  1  0  0  0
  3  4  2  0  0  0
  4  5  1  0  0  0
  5  6  1  0  0  0
  5  7  2  0  0  0
  6  9  1  0  0  0
  7  8  1  0  0  0
 10 11  2  0  0  0
 10 12  1  0  0  0
 12 14  1  0  0  0
 12 13  1  0  0  0
 14 58  1  0  0  0
 14 15  1  0  0  0
 58 59  1  0  0  0
 59 60  1  0  0  0
 60 61  1  0  0  0
 61 62  1  0  0  0
 62 63  1  0  0  0
 62 64  1  0  0  0
 15 16  2  0  0  0
 15 17  1  0  0  0
 17 19  1  0  0  0
 17 18  1  0  0  0
 19 51  1  0  0  0
 19 20  1  0  0  0
 51 52  1  0  0  0
 52 53  1  0  0  0
 53 54  2  0  0  0
 53 55  1  0  0  0
 55 56  1  0  0  0
 55 57  1  0  0  0
 20 21  2  0  0  0
 20 22  1  0  0  0
 22 24  1  0  0  0
 22 23  1  0  0  0
 24 44  1  0  0  0
 24 25  1  0  0  0
 44 45  1  0  0  0
 45 49  1  0  0  0
 45 46  2  0  0  0
 46 47  1  0  0  0
 47 48  2  0  0  0
 48 49  1  0  0  0
 49 50  1  0  0  0
 25 26  2  0  0  0
 25 27  1  0  0  0
 27 29  1  0  0  0
 27 28  1  0  0  0
 29 41  1  0  0  0
 29 30  1  0  0  0
 41 42  1  0  0  0
 42 43  1  0  0  0
 30 31  2  0  0  0
 30 32  1  0  0  0
 32 36  1  0  0  0
 32 33  1  0  0  0
 33 34  1  0  0  0
 34 35  1  0  0  0
 35 36  1  0  0  0
 36 37  1  0  0  0
 37 38  1  0  0  0
 37 39  2  0  0  0
 38 40  1  0  0  0
 99100  1  0  0  0
 99101  1  0  0  0
100102  1  0  0  0
M  END
> <minimizedAffinity>
-3.71838

$$$$



126129  0  0  0  0  0  0  0  0999 V2000
   22.3184   26.8977   54.4245 C   0  0  0  0  0  0  0  0  0  0  0  0
   21.4419   26.7162   54.8703 C   0  0  0  0  0  0  0  0  0  0  0  0
   20.7054   26.2698   54.3621 C   0  0  0  0  0  0  0  0  0  0  0  0
   19.8289   26.0883   54.8080 C   0  0  0  0  0  0  0  0  0  0  0  0
   19.6889   26.3532   55.7621 C   0  0  0  0  0  0  0  0  0  0  0  0
   18.8124   26.1716   56.2079 O   0  0  0  0  0  0  0  0  0  0  0  0
   20.4254   26.7996   56.2703 C   0  0  0  0  0  0  0  0  0  0  0  0
   21.3019   26.9811   55.8245 C   0  0  0  0  0  0  0  0  0  0  0  0
   18.1223   25.7533   55.7318 H   0  0  0  0  0  0  0  0  0  0  0  0
   22.9294   26.1399   54.1956 C   0  0  0  0  0  0  0  0  0  0  0  0
   22.5923   25.3736   53.6486 O   0  0  0  0  0  0  0  0  0  0  0  0
   23.8773   26.1483   54.5137 N   0  0  0  0  0  0  0  0  0  0  0  0
   24.2092   26.9027   55.0523 H   0  0  0  0  0  0  0  0  0  0  0  0
   24.4884   25.3904   54.2848 C   0  0  0  0  0  0  0  0  0  0  0  0
   25.0490   25.4324   53.4579 C   0  0  0  0  0  0  0  0  0  0  0  0
   25.7032   26.1786   53.3347 O   0  0  0  0  0  0  0  0  0  0  0  0
   24.9555   24.7282   52.7541 N   0  0  0  0  0  0  0  0  0  0  0  0
   24.3114   23.9936   52.8754 H   0  0  0  0  0  0  0  0  0  0  0  0
   25.5161   24.7701   51.9271 C   0  0  0  0  0  0  0  0  0  0  0  0
   26.2323   24.0894   51.7735 C   0  0  0  0  0  0  0  0  0  0  0  0
   26.0642   23.1284   51.9935 O   0  0  0  0  0  0  0  0  0  0  0  0
   27.1166   24.3695   51.3999 N   0  0  0  0  0  0  0  0  0  0  0  0
   27.2821   25.3155   51.1834 H   0  0  0  0  0  0  0  0  0  0  0  0
   27.8328   23.6887   51.2464 C   0  0  0  0  0  0  0  0  0  0  0  0
   28.5626   23.5701   51.9197 C   0  0  0  0  0  0  0  0  0  0  0  0
   28.9378   22.6600   52.0952 O   0  0  0  0  0  0  0  0  0  0  0  0
   28.9170   24.3616   52.4175 N   0  0  0  0  0  0  0  0  0  0  0  0
   28.5476   25.2576   52.2447 H   0  0  0  0  0  0  0  0  0  0  0  0
   29.6468   24.2430   53.0908 C   0  0  0  0  0  0  0  0  0  0  0  0
   29.4196   24.0703   54.0492 C   0  0  0  0  0  0  0  0  0  0  0  0
   29.6030   23.1739   54.4528 O   0  0  0  0  0  0  0  0  0  0  0  0
   29.0090   24.7939   54.6040 N   0  0  0  0  0  0  0  0  0  0  0  0
   28.7882   25.7186   54.2939 C   0  0  0  0  0  0  0  0  0  0  0  0
   28.3899   26.2160   55.0646 C   0  0  0  0  0  0  0  0  0  0  0  0
   28.3646   25.5988   55.8509 C   0  0  0  0  0  0  0  0  0  0  0  0
   28.7472   24.7199   55.5663 C   0  0  0  0  0  0  0  0  0  0  0  0
   28.8500   23.9092   56.1427 C   0  0  0  0  0  0  0  0  0  0  0  0
   29.6510   23.8143   56.7338 O   0  0  0  0  0  0  0  0  0  0  0  0
   28.1518   23.1934   56.1280 O   0  0  0  0  0  0  0  0  0  0  0  0
   30.3052   24.4850   56.7475 H   0  0  0  0  0  0  0  0  0  0  0  0
   30.6038   24.2972   52.8057 C   0  0  0  0  0  0  0  0  0  0  0  0
   30.9670   25.1511   52.4329 S   0  0  0  0  0  0  0  0  0  0  0  0
   30.1593   26.2388   52.3136 H   0  0  0  0  0  0  0  0  0  0  0  0
   27.8192   23.1265   50.4195 C   0  0  0  0  0  0  0  0  0  0  0  0
   28.1666   23.4962   49.5577 C   0  0  0  0  0  0  0  0  0  0  0  0
   29.0793   23.3444   49.1783 C   0  0  0  0  0  0  0  0  0  0  0  0
   29.1390   23.8370   48.3102 N   0  0  0  0  0  0  0  0  0  0  0  0
   28.2632   24.2935   48.1529 C   0  0  0  0  0  0  0  0  0  0  0  0
   27.6622   24.0828   48.9240 N   0  0  0  0  0  0  0  0  0  0  0  0
   26.7365   24.3976   49.0390 H   0  0  0  0  0  0  0  0  0  0  0  0
   25.3606   25.4929   51.2537 C   0  0  0  0  0  0  0  0  0  0  0  0
   24.6136   25.4094   50.5941 C   0  0  0  0  0  0  0  0  0  0  0  0
   24.5863   26.0054   49.7916 C   0  0  0  0  0  0  0  0  0  0  0  0
   25.1490   25.7941   48.9924 O   0  0  0  0  0  0  0  0  0  0  0  0
   23.9962   26.8128   49.7883 N   0  0  0  0  0  0  0  0  0  0  0  0
   23.4423   27.0208   50.5752 H   0  0  0  0  0  0  0  0  0  0  0  0
   23.9693   27.3996   48.9983 H   0  0  0  0  0  0  0  0  0  0  0  0
   24.5387   24.5906   54.8830 C   0  0  0  0  0  0  0  0  0  0  0  0
   24.8661   24.6889   55.8228 C   0  0  0  0  0  0  0  0  0  0  0  0
   24.7688   23.9311   56.4680 C   0  0  0  0  0  0  0  0  0  0  0  0
   25.2851   23.9342   57.3244 C   0  0  0  0  0  0  0  0  0  0  0  0
   24.9246   23.4594   58.1272 N   0  0  0  0  0  0  0  0  0  0  0  0
   24.0302   22.9719   58.0726 H   0  0  0  0  0  0  0  0  0  0  0  0
   25.4511   23.4625   59.0008 H   0  0  0  0  0  0  0  0  0  0  0  0
   22.6197   28.1393   53.2550 C   0  0  0  0  0  0  0  0  0  0  0  0
   22.3898   27.5021   52.5193 O   0  0  0  0  0  0  0  0  0  0  0  0
   22.5840   27.8371   54.2075 N   0  0  0  0  0  0  0  0  0  0  0  0
   22.8102   28.4644   54.9318 H   0  0  0  0  0  0  0  0  0  0  0  0
   22.8852   29.0787   53.0380 C   0  0  0  0  0  0  0  0  0  0  0  0
   21.6877   30.2569   53.4594 C   0  0  0  0  0  0  0  0  0  0  0  0
   21.1034   29.9286   52.7172 O   0  0  0  0  0  0  0  0  0  0  0  0
   22.5786   29.8320   53.6198 N   0  0  0  0  0  0  0  0  0  0  0  0
   23.1538   30.1552   54.3504 H   0  0  0  0  0  0  0  0  0  0  0  0
   21.3811   31.0102   54.0411 C   0  0  0  0  0  0  0  0  0  0  0  0
   21.1628   30.7873   55.7448 C   0  0  0  0  0  0  0  0  0  0  0  0
   20.2556   30.4010   55.5780 O   0  0  0  0  0  0  0  0  0  0  0  0
   21.7255   31.0919   54.9764 N   0  0  0  0  0  0  0  0  0  0  0  0
   22.6186   31.4722   55.1405 H   0  0  0  0  0  0  0  0  0  0  0  0
   21.5072   30.8690   56.6801 C   0  0  0  0  0  0  0  0  0  0  0  0
   20.9431   31.2990   57.3849 C   0  0  0  0  0  0  0  0  0  0  0  0
   22.5966   30.1631   57.8267 C   0  0  0  0  0  0  0  0  0  0  0  0
   21.8688   30.1540   58.5125 O   0  0  0  0  0  0  0  0  0  0  0  0
   22.4158   30.5206   56.9105 N   0  0  0  0  0  0  0  0  0  0  0  0
   23.1322   30.5295   56.2354 H   0  0  0  0  0  0  0  0  0  0  0  0
   23.5052   29.8147   58.0573 C   0  0  0  0  0  0  0  0  0  0  0  0
   23.7501   28.1188   58.3106 C   0  0  0  0  0  0  0  0  0  0  0  0
   23.8063   27.9793   57.3220 O   0  0  0  0  0  0  0  0  0  0  0  0
   23.5996   29.0365   58.6782 N   0  0  0  0  0  0  0  0  0  0  0  0
   23.5442   29.1740   59.6515 H   0  0  0  0  0  0  0  0  0  0  0  0
   23.8445   27.3407   58.9316 C   0  0  0  0  0  0  0  0  0  0  0  0
   25.4393   27.0114   59.5215 C   0  0  0  0  0  0  0  0  0  0  0  0
   25.6879   26.6245   58.6335 O   0  0  0  0  0  0  0  0  0  0  0  0
   24.5176   27.3695   59.6705 N   0  0  0  0  0  0  0  0  0  0  0  0
   24.2729   27.7503   60.5448 H   0  0  0  0  0  0  0  0  0  0  0  0
   26.2967   26.2194   60.8012 N   0  0  0  0  0  0  0  0  0  0  0  0
   26.1125   27.0402   60.2605 C   0  0  0  0  0  0  0  0  0  0  0  0
   26.9832   26.2487   61.5550 H   0  0  0  0  0  0  0  0  0  0  0  0
   25.7979   25.3529   60.5990 H   0  0  0  0  0  0  0  0  0  0  0  0
   26.6014   27.8896   60.4587 C   0  0  0  0  0  0  0  0  0  0  0  0
   27.1497   28.3288   59.7469 O   0  0  0  0  0  0  0  0  0  0  0  0
   26.5421   28.3000   61.3686 C   0  0  0  0  0  0  0  0  0  0  0  0
   27.2072   27.9306   58.8642 H   0  0  0  0  0  0  0  0  0  0  0  0
   23.2657   26.5338   58.8136 C   0  0  0  0  0  0  0  0  0  0  0  0
   22.4897   26.3814   59.4256 C   0  0  0  0  0  0  0  0  0  0  0  0
   22.0549   25.4817   59.4673 C   0  0  0  0  0  0  0  0  0  0  0  0
   22.6173   24.6551   59.4893 O   0  0  0  0  0  0  0  0  0  0  0  0
   21.0578   25.4087   59.4870 N   0  0  0  0  0  0  0  0  0  0  0  0
   20.5042   26.2225   59.4654 H   0  0  0  0  0  0  0  0  0  0  0  0
   20.6298   24.5231   59.5280 H   0  0  0  0  0  0  0  0  0  0  0  0
   24.3194   30.2444   57.6668 C   0  0  0  0  0  0  0  0  0  0  0  0
   24.9484   30.7513   58.2560 C   0  0  0  0  0  0  0  0  0  0  0  0
   25.7875   31.1394   57.8748 C   0  0  0  0  0  0  0  0  0  0  0  0
   25.7631   32.0248   57.4107 O   0  0  0  0  0  0  0  0  0  0  0  0
   26.6511   30.6420   57.9577 N   0  0  0  0  0  0  0  0  0  0  0  0
   26.6752   29.7703   58.4146 H   0  0  0  0  0  0  0  0  0  0  0  0
   27.4772   31.0240   57.5823 H   0  0  0  0  0  0  0  0  0  0  0  0
   20.7300   31.6819   53.6876 C   0  0  0  0  0  0  0  0  0  0  0  0
   21.0581   32.5562   53.3301 O   0  0  0  0  0  0  0  0  0  0  0  0
   20.4265   33.2078   52.9872 H   0  0  0  0  0  0  0  0  0  0  0  0
   23.4575   29.2647   52.2392 C   0  0  0  0  0  0  0  0  0  0  0  0
   24.4166   29.5206   52.3599 C   0  0  0  0  0  0  0  0  0  0  0  0
   24.7732   30.4529   52.4185 C   0  0  0  0  0  0  0  0  0  0  0  0
   25.7646   30.3977   52.5380 N   0  0  0  0  0  0  0  0  0  0  0  0
   26.0205   29.4310   52.5533 C   0  0  0  0  0  0  0  0  0  0  0  0
   25.1874   28.8891   52.4432 N   0  0  0  0  0  0  0  0  0  0  0  0
   25.1352   27.9062   52.4208 H   0  0  0  0  0  0  0  0  0  0  0  0
 95 96  1  0  0  0
 95 97  1  0  0  0
 95 98  1  0  0  0
 96 91  1  0  0  0
 96 99  1  0  0  0
 91 92  2  0  0  0
 91 93  1  0  0  0
 93 90  1  0  0  0
 93 94  1  0  0  0
 90103  1  0  0  0
 90 86  1  0  0  0
103104  1  0  0  0
104105  1  0  0  0
105106  2  0  0  0
105107  1  0  0  0
107108  1  0  0  0
107109  1  0  0  0
 86 87  2  0  0  0
 86 88  1  0  0  0
 88 85  1  0  0  0
 88 89  1  0  0  0
 85110  1  0  0  0
 85 81  1  0  0  0
110111  1  0  0  0
111112  1  0  0  0
112113  2  0  0  0
112114  1  0  0  0
114115  1  0  0  0
114116  1  0  0  0
 81 82  2  0  0  0
 81 83  1  0  0  0
 83 79  1  0  0  0
 83 84  1  0  0  0
 79 80  1  0  0  0
 79 75  1  0  0  0
 75 76  2  0  0  0
 75 77  1  0  0  0
 77 74  1  0  0  0
 77 78  1  0  0  0
 74117  1  0  0  0
 74 70  1  0  0  0
117118  1  0  0  0
118119  1  0  0  0
 70 71  2  0  0  0
 70 72  1  0  0  0
 72 69  1  0  0  0
 72 73  1  0  0  0
 69120  1  0  0  0
 69 65  1  0  0  0
120121  1  0  0  0
121125  1  0  0  0
121122  2  0  0  0
122123  1  0  0  0
123124  2  0  0  0
124125  1  0  0  0
125126  1  0  0  0
 65 66  2  0  0  0
 65 67  1  0  0  0
 67  1  1  0  0  0
 67 68  1  0  0  0
  1  2  1  0  0  0
  1 10  1  0  0  0
  2  8  2  0  0  0
  2  3  1  0  0  0
  3  4  2  0  0  0
  4  5  1  0  0  0
  5  6  1  0  0  0
  5  7  2  0  0  0
  6  9  1  0  0  0
  7  8  1  0  0  0
 10 11  2  0  0  0
 10 12  1  0  0  0
 12 14  1  0  0  0
 12 13  1  0  0  0
 14 58  1  0  0  0
 14 15  1  0  0  0
 58 59  1  0  0  0
 59 60  1  0  0  0
 60 61  1  0  0  0
 61 62  1  0  0  0
 62 63  1  0  0  0
 62 64  1  0  0  0
 15 16  2  0  0  0
 15 17  1  0  0  0
 17 19  1  0  0  0
 17 18  1  0  0  0
 19 51  1  0  0  0
 19 20  1  0  0  0
 51 52  1  0  0  0
 52 53  1  0  0  0
 53 54  2  0  0  0
 53 55  1  0  0  0
 55 56  1  0  0  0
 55 57  1  0  0  0
 20 21  2  0  0  0
 20 22  1  0  0  0
 22 24  1  0  0  0
 22 23  1  0  0  0
 24 44  1  0  0  0
 24 25  1  0  0  0
 44 45  1  0  0  0
 45 49  1  0  0  0
 45 46  2  0  0  0
 46 47  1  0  0  0
 47 48  2  0  0  0
 48 49  1  0  0  0
 49 50  1  0  0  0
 25 26  2  0  0  0
 25 27  1  0  0  0
 27 29  1  0  0  0
 27 28  1  0  0  0
 29 41  1  0  0  0
 29 30  1  0  0  0
 41 42  1  0  0  0
 42 43  1  0  0  0
 30 31  2  0  0  0
 30 32  1  0  0  0
 32 36  1  0  0  0
 32 33  1  0  0  0
 33 34  1  0  0  0
 34 35  1  0  0  0
 35 36  1  0  0  0
 36 37  1  0  0  0
 37 38  1  0  0  0
 37 39  2  0  0  0
 38 40  1  0  0  0
 99100  1  0  0  0
 99101  1  0  0  0
100102  1  0  0  0
M  END
> <minimizedAffinity>
-3.69792

$$$$



126129  0  0  0  0  0  0  0  0999 V2000
   19.3728    5.6643   51.7147 C   0  0  0  0  0  0  0  0  0  0  0  0
   18.4072    5.5430   51.9445 C   0  0  0  0  0  0  0  0  0  0  0  0
   17.7023    5.9907   51.3944 C   0  0  0  0  0  0  0  0  0  0  0  0
   16.7366    5.8694   51.6242 C   0  0  0  0  0  0  0  0  0  0  0  0
   16.4759    5.3004   52.4041 C   0  0  0  0  0  0  0  0  0  0  0  0
   15.5103    5.1791   52.6339 O   0  0  0  0  0  0  0  0  0  0  0  0
   17.1808    4.8527   52.9543 C   0  0  0  0  0  0  0  0  0  0  0  0
   18.1465    4.9740   52.7245 C   0  0  0  0  0  0  0  0  0  0  0  0
   14.8497    5.5986   52.1185 H   0  0  0  0  0  0  0  0  0  0  0  0
   19.6853    5.5201   50.7758 C   0  0  0  0  0  0  0  0  0  0  0  0
   19.3451    6.1058   50.0401 O   0  0  0  0  0  0  0  0  0  0  0  0
   20.3379    4.7902   50.5725 N   0  0  0  0  0  0  0  0  0  0  0  0
   20.6728    4.2136   51.2968 H   0  0  0  0  0  0  0  0  0  0  0  0
   20.6504    4.6460   49.6335 C   0  0  0  0  0  0  0  0  0  0  0  0
   21.5065    5.0586   49.3226 C   0  0  0  0  0  0  0  0  0  0  0  0
   22.3510    4.9047   49.8356 O   0  0  0  0  0  0  0  0  0  0  0  0
   21.5183    5.6249   48.4985 N   0  0  0  0  0  0  0  0  0  0  0  0
   20.6870    5.7763   47.9934 H   0  0  0  0  0  0  0  0  0  0  0  0
   22.3745    6.0375   48.1875 C   0  0  0  0  0  0  0  0  0  0  0  0
   22.9320    5.5734   47.4992 C   0  0  0  0  0  0  0  0  0  0  0  0
   22.5007    5.1871   46.6839 O   0  0  0  0  0  0  0  0  0  0  0  0
   23.9210    5.4957   47.6261 N   0  0  0  0  0  0  0  0  0  0  0  0
   24.3456    5.8760   48.4288 H   0  0  0  0  0  0  0  0  0  0  0  0
   24.4785    5.0316   46.9378 C   0  0  0  0  0  0  0  0  0  0  0  0
   24.8285    5.5409   46.1516 C   0  0  0  0  0  0  0  0  0  0  0  0
   24.7186    5.1730   45.2283 O   0  0  0  0  0  0  0  0  0  0  0  0
   25.2886    6.4182   46.2888 N   0  0  0  0  0  0  0  0  0  0  0  0
   25.3968    6.7804   47.1978 H   0  0  0  0  0  0  0  0  0  0  0  0
   25.6386    6.9275   45.5027 C   0  0  0  0  0  0  0  0  0  0  0  0
   25.1667    7.7521   45.1907 C   0  0  0  0  0  0  0  0  0  0  0  0
   24.7500    7.7762   44.2820 O   0  0  0  0  0  0  0  0  0  0  0  0
   25.1115    8.5526   45.7876 N   0  0  0  0  0  0  0  0  0  0  0  0
   25.4941    8.6266   46.7085 C   0  0  0  0  0  0  0  0  0  0  0  0
   25.2830    9.5394   47.0583 C   0  0  0  0  0  0  0  0  0  0  0  0
   24.7700   10.0294   46.3535 C   0  0  0  0  0  0  0  0  0  0  0  0
   24.6640    9.4195   45.5682 C   0  0  0  0  0  0  0  0  0  0  0  0
   24.1931    9.6382   44.7136 C   0  0  0  0  0  0  0  0  0  0  0  0
   24.6909   10.0802   43.9673 O   0  0  0  0  0  0  0  0  0  0  0  0
   23.2244    9.4148   44.6050 O   0  0  0  0  0  0  0  0  0  0  0  0
   25.5986   10.2895   44.0690 H   0  0  0  0  0  0  0  0  0  0  0  0
   26.4607    6.6122   45.0284 C   0  0  0  0  0  0  0  0  0  0  0  0
   27.3613    6.7592   45.4374 S   0  0  0  0  0  0  0  0  0  0  0  0
   27.4683    7.3879   46.6386 H   0  0  0  0  0  0  0  0  0  0  0  0
   24.6859    4.0583   47.0356 C   0  0  0  0  0  0  0  0  0  0  0  0
   25.1614    3.7279   47.8509 C   0  0  0  0  0  0  0  0  0  0  0  0
   26.1219    3.8900   48.0774 C   0  0  0  0  0  0  0  0  0  0  0  0
   26.3140    3.4396   48.9493 N   0  0  0  0  0  0  0  0  0  0  0  0
   25.4724    2.9991   49.2617 C   0  0  0  0  0  0  0  0  0  0  0  0
   24.7600    3.1773   48.5828 N   0  0  0  0  0  0  0  0  0  0  0  0
   23.8273    2.8653   48.6273 H   0  0  0  0  0  0  0  0  0  0  0  0
   22.6732    6.9140   48.5649 C   0  0  0  0  0  0  0  0  0  0  0  0
   22.1598    7.7474   48.3604 C   0  0  0  0  0  0  0  0  0  0  0  0
   22.2863    8.5637   48.9241 C   0  0  0  0  0  0  0  0  0  0  0  0
   22.7309    8.4907   49.8169 O   0  0  0  0  0  0  0  0  0  0  0  0
   21.9683    9.4528   48.5950 N   0  0  0  0  0  0  0  0  0  0  0  0
   21.5306    9.5245   47.7161 H   0  0  0  0  0  0  0  0  0  0  0  0
   22.0928   10.2564   49.1500 H   0  0  0  0  0  0  0  0  0  0  0  0
   20.1066    4.0893   49.0056 C   0  0  0  0  0  0  0  0  0  0  0  0
   19.9464    3.1225   49.2052 C   0  0  0  0  0  0  0  0  0  0  0  0
   19.3905    2.5693   48.5848 C   0  0  0  0  0  0  0  0  0  0  0  0
   18.5215    2.1867   48.8986 C   0  0  0  0  0  0  0  0  0  0  0  0
   18.0222    1.5405   48.3215 N   0  0  0  0  0  0  0  0  0  0  0  0
   18.3993    1.2716   47.4127 H   0  0  0  0  0  0  0  0  0  0  0  0
   17.1359    1.1502   48.6416 H   0  0  0  0  0  0  0  0  0  0  0  0
   20.4532    6.8335   52.3971 C   0  0  0  0  0  0  0  0  0  0  0  0
   20.2272    7.4719   51.6613 O   0  0  0  0  0  0  0  0  0  0  0  0
   20.0261    5.9297   52.4238 N   0  0  0  0  0  0  0  0  0  0  0  0
   20.2486    5.3013   53.1482 H   0  0  0  0  0  0  0  0  0  0  0  0
   21.1064    7.0989   53.1062 C   0  0  0  0  0  0  0  0  0  0  0  0
   22.8051    6.8280   52.9030 C   0  0  0  0  0  0  0  0  0  0  0  0
   22.6914    5.8836   53.2112 O   0  0  0  0  0  0  0  0  0  0  0  0
   22.0126    7.4357   52.8505 N   0  0  0  0  0  0  0  0  0  0  0  0
   22.1245    8.3656   52.5471 H   0  0  0  0  0  0  0  0  0  0  0  0
   23.7112    7.1649   52.6473 C   0  0  0  0  0  0  0  0  0  0  0  0
   24.5608    8.3857   53.5348 C   0  0  0  0  0  0  0  0  0  0  0  0
   24.9411    7.6835   54.1367 O   0  0  0  0  0  0  0  0  0  0  0  0
   23.9459    8.1264   52.7901 N   0  0  0  0  0  0  0  0  0  0  0  0
   23.5715    8.8177   52.1975 H   0  0  0  0  0  0  0  0  0  0  0  0
   24.7955    9.3472   53.6776 C   0  0  0  0  0  0  0  0  0  0  0  0
   24.3643    9.8625   54.4182 C   0  0  0  0  0  0  0  0  0  0  0  0
   26.2180   10.3144   53.4751 C   0  0  0  0  0  0  0  0  0  0  0  0
   26.3087   10.3890   54.4681 O   0  0  0  0  0  0  0  0  0  0  0  0
   25.4614    9.7935   53.0798 N   0  0  0  0  0  0  0  0  0  0  0  0
   25.3721    9.7200   52.1021 H   0  0  0  0  0  0  0  0  0  0  0  0
   26.8840   10.7607   52.8772 C   0  0  0  0  0  0  0  0  0  0  0  0
   27.9506    9.8200   51.8886 C   0  0  0  0  0  0  0  0  0  0  0  0
   28.5609    9.6906   52.6701 O   0  0  0  0  0  0  0  0  0  0  0  0
   27.1121   10.3550   51.9922 N   0  0  0  0  0  0  0  0  0  0  0  0
   26.5113   10.4824   51.2228 H   0  0  0  0  0  0  0  0  0  0  0  0
   28.1787    9.4143   51.0035 C   0  0  0  0  0  0  0  0  0  0  0  0
   27.6801    7.7899   50.6675 C   0  0  0  0  0  0  0  0  0  0  0  0
   26.7583    8.1161   50.4583 O   0  0  0  0  0  0  0  0  0  0  0  0
   28.3903    8.4390   50.9401 N   0  0  0  0  0  0  0  0  0  0  0  0
   29.2979    8.1179   51.1461 H   0  0  0  0  0  0  0  0  0  0  0  0
   27.5866    6.1891   51.3222 N   0  0  0  0  0  0  0  0  0  0  0  0
   27.8918    6.8146   50.6042 C   0  0  0  0  0  0  0  0  0  0  0  0
   27.8024    5.1943   51.2577 H   0  0  0  0  0  0  0  0  0  0  0  0
   27.0593    6.5459   52.1192 H   0  0  0  0  0  0  0  0  0  0  0  0
   28.4086    6.4648   49.8229 C   0  0  0  0  0  0  0  0  0  0  0  0
   28.0995    6.6585   48.8918 O   0  0  0  0  0  0  0  0  0  0  0  0
   29.2346    5.9214   49.9726 C   0  0  0  0  0  0  0  0  0  0  0  0
   27.2983    7.1857   48.7465 H   0  0  0  0  0  0  0  0  0  0  0  0
   28.1952    9.9839   50.1818 C   0  0  0  0  0  0  0  0  0  0  0  0
   29.0692   10.2474   49.7736 C   0  0  0  0  0  0  0  0  0  0  0  0
   29.1432   10.3657   48.7833 C   0  0  0  0  0  0  0  0  0  0  0  0
   28.7298    9.6951   48.1674 O   0  0  0  0  0  0  0  0  0  0  0  0
   29.6306   11.1546   48.4090 N   0  0  0  0  0  0  0  0  0  0  0  0
   30.0376   11.8147   49.0154 H   0  0  0  0  0  0  0  0  0  0  0  0
   29.7035   11.2710   47.4342 H   0  0  0  0  0  0  0  0  0  0  0  0
   27.3218   11.6126   53.1645 C   0  0  0  0  0  0  0  0  0  0  0  0
   26.9355   12.4919   52.8859 C   0  0  0  0  0  0  0  0  0  0  0  0
   27.3465   13.3438   53.2103 C   0  0  0  0  0  0  0  0  0  0  0  0
   26.9979   13.7837   54.0380 O   0  0  0  0  0  0  0  0  0  0  0  0
   28.1062   13.7559   52.7071 N   0  0  0  0  0  0  0  0  0  0  0  0
   28.4494   13.3229   51.8923 H   0  0  0  0  0  0  0  0  0  0  0  0
   28.5108   14.5947   53.0266 H   0  0  0  0  0  0  0  0  0  0  0  0
   24.3827    6.5401   52.2488 C   0  0  0  0  0  0  0  0  0  0  0  0
   24.4584    6.4549   51.2554 O   0  0  0  0  0  0  0  0  0  0  0  0
   25.1098    5.8488   50.8688 H   0  0  0  0  0  0  0  0  0  0  0  0
   20.8534    7.0275   54.0711 C   0  0  0  0  0  0  0  0  0  0  0  0
   20.4350    7.8069   54.5373 C   0  0  0  0  0  0  0  0  0  0  0  0
   19.5762    7.7937   55.0495 C   0  0  0  0  0  0  0  0  0  0  0  0
   19.4123    8.7151   55.4020 N   0  0  0  0  0  0  0  0  0  0  0  0
   20.1698    9.2978   55.1075 C   0  0  0  0  0  0  0  0  0  0  0  0
   20.8018    8.7365   54.5732 N   0  0  0  0  0  0  0  0  0  0  0  0
   21.6384    9.0450   54.1557 H   0  0  0  0  0  0  0  0  0  0  0  0
 95 96  1  0  0  0
 95 97  1  0  0  0
 95 98  1  0  0  0
 96 91  1  0  0  0
 96 99  1  0  0  0
 91 92  2  0  0  0
 91 93  1  0  0  0
 93 90  1  0  0  0
 93 94  1  0  0  0
 90103  1  0  0  0
 90 86  1  0  0  0
103104  1  0  0  0
104105  1  0  0  0
105106  2  0  0  0
105107  1  0  0  0
107108  1  0  0  0
107109  1  0  0  0
 86 87  2  0  0  0
 86 88  1  0  0  0
 88 85  1  0  0  0
 88 89  1  0  0  0
 85110  1  0  0  0
 85 81  1  0  0  0
110111  1  0  0  0
111112  1  0  0  0
112113  2  0  0  0
112114  1  0  0  0
114115  1  0  0  0
114116  1  0  0  0
 81 82  2  0  0  0
 81 83  1  0  0  0
 83 79  1  0  0  0
 83 84  1  0  0  0
 79 80  1  0  0  0
 79 75  1  0  0  0
 75 76  2  0  0  0
 75 77  1  0  0  0
 77 74  1  0  0  0
 77 78  1  0  0  0
 74117  1  0  0  0
 74 70  1  0  0  0
117118  1  0  0  0
118119  1  0  0  0
 70 71  2  0  0  0
 70 72  1  0  0  0
 72 69  1  0  0  0
 72 73  1  0  0  0
 69120  1  0  0  0
 69 65  1  0  0  0
120121  1  0  0  0
121125  1  0  0  0
121122  2  0  0  0
122123  1  0  0  0
123124  2  0  0  0
124125  1  0  0  0
125126  1  0  0  0
 65 66  2  0  0  0
 65 67  1  0  0  0
 67  1  1  0  0  0
 67 68  1  0  0  0
  1  2  1  0  0  0
  1 10  1  0  0  0
  2  8  2  0  0  0
  2  3  1  0  0  0
  3  4  2  0  0  0
  4  5  1  0  0  0
  5  6  1  0  0  0
  5  7  2  0  0  0
  6  9  1  0  0  0
  7  8  1  0  0  0
 10 11  2  0  0  0
 10 12  1  0  0  0
 12 14  1  0  0  0
 12 13  1  0  0  0
 14 58  1  0  0  0
 14 15  1  0  0  0
 58 59  1  0  0  0
 59 60  1  0  0  0
 60 61  1  0  0  0
 61 62  1  0  0  0
 62 63  1  0  0  0
 62 64  1  0  0  0
 15 16  2  0  0  0
 15 17  1  0  0  0
 17 19  1  0  0  0
 17 18  1  0  0  0
 19 51  1  0  0  0
 19 20  1  0  0  0
 51 52  1  0  0  0
 52 53  1  0  0  0
 53 54  2  0  0  0
 53 55  1  0  0  0
 55 56  1  0  0  0
 55 57  1  0  0  0
 20 21  2  0  0  0
 20 22  1  0  0  0
 22 24  1  0  0  0
 22 23  1  0  0  0
 24 44  1  0  0  0
 24 25  1  0  0  0
 44 45  1  0  0  0
 45 49  1  0  0  0
 45 46  2  0  0  0
 46 47  1  0  0  0
 47 48  2  0  0  0
 48 49  1  0  0  0
 49 50  1  0  0  0
 25 26  2  0  0  0
 25 27  1  0  0  0
 27 29  1  0  0  0
 27 28  1  0  0  0
 29 41  1  0  0  0
 29 30  1  0  0  0
 41 42  1  0  0  0
 42 43  1  0  0  0
 30 31  2  0  0  0
 30 32  1  0  0  0
 32 36  1  0  0  0
 32 33  1  0  0  0
 33 34  1  0  0  0
 34 35  1  0  0  0
 35 36  1  0  0  0
 36 37  1  0  0  0
 37 38  1  0  0  0
 37 39  2  0  0  0
 38 40  1  0  0  0
 99100  1  0  0  0
 99101  1  0  0  0
100102  1  0  0  0
M  END
> <minimizedAffinity>
-3.68531

$$$$



126129  0  0  0  0  0  0  0  0999 V2000
   21.7809   26.7914   55.7131 C   0  0  0  0  0  0  0  0  0  0  0  0
   20.8450   26.8855   55.3738 C   0  0  0  0  0  0  0  0  0  0  0  0
   20.4392   26.1596   54.8183 C   0  0  0  0  0  0  0  0  0  0  0  0
   19.5032   26.2537   54.4790 C   0  0  0  0  0  0  0  0  0  0  0  0
   18.9730   27.0736   54.6951 C   0  0  0  0  0  0  0  0  0  0  0  0
   18.0371   27.1676   54.3558 O   0  0  0  0  0  0  0  0  0  0  0  0
   19.3788   27.7994   55.2506 C   0  0  0  0  0  0  0  0  0  0  0  0
   20.3147   27.7054   55.5899 C   0  0  0  0  0  0  0  0  0  0  0  0
   17.6569   26.4875   53.8354 H   0  0  0  0  0  0  0  0  0  0  0  0
   22.5528   27.0272   55.1227 C   0  0  0  0  0  0  0  0  0  0  0  0
   23.2497   26.3413   54.9131 O   0  0  0  0  0  0  0  0  0  0  0  0
   22.6278   27.9488   54.7419 N   0  0  0  0  0  0  0  0  0  0  0  0
   21.9417   28.6240   54.9482 H   0  0  0  0  0  0  0  0  0  0  0  0
   23.3998   28.1845   54.1514 C   0  0  0  0  0  0  0  0  0  0  0  0
   23.2853   28.1924   53.1581 C   0  0  0  0  0  0  0  0  0  0  0  0
   22.3772   28.3237   52.7604 O   0  0  0  0  0  0  0  0  0  0  0  0
   24.0789   28.0689   52.5623 N   0  0  0  0  0  0  0  0  0  0  0  0
   24.9729   27.9397   52.9538 H   0  0  0  0  0  0  0  0  0  0  0  0
   23.9645   28.0768   51.5689 C   0  0  0  0  0  0  0  0  0  0  0  0
   23.9832   28.9434   51.0703 C   0  0  0  0  0  0  0  0  0  0  0  0
   23.5663   29.0077   50.1637 O   0  0  0  0  0  0  0  0  0  0  0  0
   24.4188   29.7458   51.4784 N   0  0  0  0  0  0  0  0  0  0  0  0
   24.8292   29.6825   52.3711 H   0  0  0  0  0  0  0  0  0  0  0  0
   24.4375   30.6124   50.9798 C   0  0  0  0  0  0  0  0  0  0  0  0
   23.6901   31.2678   51.0883 C   0  0  0  0  0  0  0  0  0  0  0  0
   23.2919   31.7095   50.2844 O   0  0  0  0  0  0  0  0  0  0  0  0
   23.3409   31.4815   52.0006 N   0  0  0  0  0  0  0  0  0  0  0  0
   23.7330   31.0467   52.7920 H   0  0  0  0  0  0  0  0  0  0  0  0
   22.5935   32.1370   52.1091 C   0  0  0  0  0  0  0  0  0  0  0  0
   21.6778   31.8157   52.3506 C   0  0  0  0  0  0  0  0  0  0  0  0
   20.9810   31.7118   51.6409 O   0  0  0  0  0  0  0  0  0  0  0  0
   21.4590   31.5984   53.3019 N   0  0  0  0  0  0  0  0  0  0  0  0
   22.0836   31.6692   54.0797 C   0  0  0  0  0  0  0  0  0  0  0  0
   21.5877   31.3867   54.9008 C   0  0  0  0  0  0  0  0  0  0  0  0
   20.6567   31.1412   54.6305 C   0  0  0  0  0  0  0  0  0  0  0  0
   20.5772   31.2720   53.6424 C   0  0  0  0  0  0  0  0  0  0  0  0
   19.7595   31.1057   53.0914 C   0  0  0  0  0  0  0  0  0  0  0  0
   19.0880   31.8351   52.9603 O   0  0  0  0  0  0  0  0  0  0  0  0
   19.6131   30.2100   52.6715 O   0  0  0  0  0  0  0  0  0  0  0  0
   19.2251   32.6744   53.3537 H   0  0  0  0  0  0  0  0  0  0  0  0
   22.7617   33.1138   51.9759 C   0  0  0  0  0  0  0  0  0  0  0  0
   23.3915   33.5998   52.5818 S   0  0  0  0  0  0  0  0  0  0  0  0
   24.0194   32.9325   53.5868 H   0  0  0  0  0  0  0  0  0  0  0  0
   25.2036   30.8236   50.3728 C   0  0  0  0  0  0  0  0  0  0  0  0
   26.0810   31.1114   50.7566 C   0  0  0  0  0  0  0  0  0  0  0  0
   26.8491   30.5119   50.9817 C   0  0  0  0  0  0  0  0  0  0  0  0
   27.5872   31.0792   51.3469 N   0  0  0  0  0  0  0  0  0  0  0  0
   27.2753   32.0294   51.3474 C   0  0  0  0  0  0  0  0  0  0  0  0
   26.3444   32.0492   50.9825 N   0  0  0  0  0  0  0  0  0  0  0  0
   25.7854   32.8513   50.8663 H   0  0  0  0  0  0  0  0  0  0  0  0
   23.8314   27.2180   51.0742 C   0  0  0  0  0  0  0  0  0  0  0  0
   24.5914   26.5761   50.9733 C   0  0  0  0  0  0  0  0  0  0  0  0
   24.4186   25.6416   50.6620 C   0  0  0  0  0  0  0  0  0  0  0  0
   24.0177   24.9722   51.2875 O   0  0  0  0  0  0  0  0  0  0  0  0
   24.6468   25.3765   49.7252 N   0  0  0  0  0  0  0  0  0  0  0  0
   25.0416   26.0355   49.1094 H   0  0  0  0  0  0  0  0  0  0  0  0
   24.4768   24.4565   49.4187 H   0  0  0  0  0  0  0  0  0  0  0  0
   24.2861   28.4125   54.5545 C   0  0  0  0  0  0  0  0  0  0  0  0
   24.4212   29.2994   54.9963 C   0  0  0  0  0  0  0  0  0  0  0  0
   25.3399   29.6881   55.0668 C   0  0  0  0  0  0  0  0  0  0  0  0
   25.4635   30.6803   55.0788 C   0  0  0  0  0  0  0  0  0  0  0  0
   25.7110   31.1635   54.2390 N   0  0  0  0  0  0  0  0  0  0  0  0
   25.8374   30.6443   53.3701 H   0  0  0  0  0  0  0  0  0  0  0  0
   25.8371   32.1756   54.2512 H   0  0  0  0  0  0  0  0  0  0  0  0
   22.0651   27.1143   57.3909 C   0  0  0  0  0  0  0  0  0  0  0  0
   22.0213   28.0968   57.2092 O   0  0  0  0  0  0  0  0  0  0  0  0
   21.9450   26.4617   56.6428 N   0  0  0  0  0  0  0  0  0  0  0  0
   21.9881   25.4945   56.8216 H   0  0  0  0  0  0  0  0  0  0  0  0
   22.2292   26.7846   58.3206 C   0  0  0  0  0  0  0  0  0  0  0  0
   21.0495   25.9349   59.2620 C   0  0  0  0  0  0  0  0  0  0  0  0
   21.3521   25.0703   58.8609 O   0  0  0  0  0  0  0  0  0  0  0  0
   21.4880   26.7920   58.9918 N   0  0  0  0  0  0  0  0  0  0  0  0
   21.1900   27.6432   59.3866 H   0  0  0  0  0  0  0  0  0  0  0  0
   20.3083   25.9423   59.9332 C   0  0  0  0  0  0  0  0  0  0  0  0
   18.6460   26.0610   59.4611 C   0  0  0  0  0  0  0  0  0  0  0  0
   18.7296   27.0565   59.4173 O   0  0  0  0  0  0  0  0  0  0  0  0
   19.4354   25.5039   59.7191 N   0  0  0  0  0  0  0  0  0  0  0  0
   19.3532   24.5238   59.7623 H   0  0  0  0  0  0  0  0  0  0  0  0
   17.7732   25.6225   59.2470 C   0  0  0  0  0  0  0  0  0  0  0  0
   17.6230   25.2226   58.3429 C   0  0  0  0  0  0  0  0  0  0  0  0
   16.7083   24.6994   60.2538 C   0  0  0  0  0  0  0  0  0  0  0  0
   17.0889   23.8533   59.8806 O   0  0  0  0  0  0  0  0  0  0  0  0
   17.0504   25.5840   59.9370 N   0  0  0  0  0  0  0  0  0  0  0  0
   16.6758   26.4170   60.3045 H   0  0  0  0  0  0  0  0  0  0  0  0
   15.9855   24.6608   60.9439 C   0  0  0  0  0  0  0  0  0  0  0  0
   16.3248   25.1871   62.5588 C   0  0  0  0  0  0  0  0  0  0  0  0
   16.7652   24.3104   62.7520 O   0  0  0  0  0  0  0  0  0  0  0  0
   15.9350   25.3623   61.6548 N   0  0  0  0  0  0  0  0  0  0  0  0
   15.5014   26.2255   61.4645 H   0  0  0  0  0  0  0  0  0  0  0  0
   16.2743   25.8887   63.2696 C   0  0  0  0  0  0  0  0  0  0  0  0
   17.4370   27.1611   63.0992 C   0  0  0  0  0  0  0  0  0  0  0  0
   18.1657   26.5313   63.3683 O   0  0  0  0  0  0  0  0  0  0  0  0
   16.4913   26.8397   63.0498 N   0  0  0  0  0  0  0  0  0  0  0  0
   15.7739   27.4597   62.7849 H   0  0  0  0  0  0  0  0  0  0  0  0
   17.4936   28.4611   61.9560 N   0  0  0  0  0  0  0  0  0  0  0  0
   17.6540   28.1122   62.8793 C   0  0  0  0  0  0  0  0  0  0  0  0
   17.7148   29.4312   61.7317 H   0  0  0  0  0  0  0  0  0  0  0  0
   17.1086   27.8468   61.2384 H   0  0  0  0  0  0  0  0  0  0  0  0
   18.0314   28.7145   63.5828 C   0  0  0  0  0  0  0  0  0  0  0  0
   17.4911   28.9346   64.3950 O   0  0  0  0  0  0  0  0  0  0  0  0
   18.9491   29.0965   63.4741 C   0  0  0  0  0  0  0  0  0  0  0  0
   16.6009   28.5639   64.5004 H   0  0  0  0  0  0  0  0  0  0  0  0
   16.0068   25.6391   64.2003 C   0  0  0  0  0  0  0  0  0  0  0  0
   15.1036   25.8934   64.5460 C   0  0  0  0  0  0  0  0  0  0  0  0
   14.8426   25.6594   65.4827 C   0  0  0  0  0  0  0  0  0  0  0  0
   15.4211   25.0509   66.0257 O   0  0  0  0  0  0  0  0  0  0  0  0
   14.0030   26.0340   65.8762 N   0  0  0  0  0  0  0  0  0  0  0  0
   13.4335   26.6332   65.3415 H   0  0  0  0  0  0  0  0  0  0  0  0
   13.7461   25.8037   66.7982 H   0  0  0  0  0  0  0  0  0  0  0  0
   15.3134   23.9207   60.9232 C   0  0  0  0  0  0  0  0  0  0  0  0
   14.3853   24.0973   60.5954 C   0  0  0  0  0  0  0  0  0  0  0  0
   13.6353   23.4951   60.8691 C   0  0  0  0  0  0  0  0  0  0  0  0
   13.0760   23.7235   61.6659 O   0  0  0  0  0  0  0  0  0  0  0  0
   13.4447   22.6644   60.3459 N   0  0  0  0  0  0  0  0  0  0  0  0
   13.9954   22.4395   59.5614 H   0  0  0  0  0  0  0  0  0  0  0  0
   12.7064   22.0715   60.6154 H   0  0  0  0  0  0  0  0  0  0  0  0
   20.4400   26.3882   60.8185 C   0  0  0  0  0  0  0  0  0  0  0  0
   20.6717   25.8423   61.6237 O   0  0  0  0  0  0  0  0  0  0  0  0
   20.7994   26.2748   62.4825 H   0  0  0  0  0  0  0  0  0  0  0  0
   23.1345   26.4474   58.5790 C   0  0  0  0  0  0  0  0  0  0  0  0
   23.8065   27.0727   58.9756 C   0  0  0  0  0  0  0  0  0  0  0  0
   23.9201   27.2734   59.9486 C   0  0  0  0  0  0  0  0  0  0  0  0
   24.6668   27.9319   60.0433 N   0  0  0  0  0  0  0  0  0  0  0  0
   25.0147   28.1381   59.1286 C   0  0  0  0  0  0  0  0  0  0  0  0
   24.4830   27.6070   58.4689 N   0  0  0  0  0  0  0  0  0  0  0  0
   24.6042   27.6099   57.4918 H   0  0  0  0  0  0  0  0  0  0  0  0
 95 96  1  0  0  0
 95 97  1  0  0  0
 95 98  1  0  0  0
 96 91  1  0  0  0
 96 99  1  0  0  0
 91 92  2  0  0  0
 91 93  1  0  0  0
 93 90  1  0  0  0
 93 94  1  0  0  0
 90103  1  0  0  0
 90 86  1  0  0  0
103104  1  0  0  0
104105  1  0  0  0
105106  2  0  0  0
105107  1  0  0  0
107108  1  0  0  0
107109  1  0  0  0
 86 87  2  0  0  0
 86 88  1  0  0  0
 88 85  1  0  0  0
 88 89  1  0  0  0
 85110  1  0  0  0
 85 81  1  0  0  0
110111  1  0  0  0
111112  1  0  0  0
112113  2  0  0  0
112114  1  0  0  0
114115  1  0  0  0
114116  1  0  0  0
 81 82  2  0  0  0
 81 83  1  0  0  0
 83 79  1  0  0  0
 83 84  1  0  0  0
 79 80  1  0  0  0
 79 75  1  0  0  0
 75 76  2  0  0  0
 75 77  1  0  0  0
 77 74  1  0  0  0
 77 78  1  0  0  0
 74117  1  0  0  0
 74 70  1  0  0  0
117118  1  0  0  0
118119  1  0  0  0
 70 71  2  0  0  0
 70 72  1  0  0  0
 72 69  1  0  0  0
 72 73  1  0  0  0
 69120  1  0  0  0
 69 65  1  0  0  0
120121  1  0  0  0
121125  1  0  0  0
121122  2  0  0  0
122123  1  0  0  0
123124  2  0  0  0
124125  1  0  0  0
125126  1  0  0  0
 65 66  2  0  0  0
 65 67  1  0  0  0
 67  1  1  0  0  0
 67 68  1  0  0  0
  1  2  1  0  0  0
  1 10  1  0  0  0
  2  8  2  0  0  0
  2  3  1  0  0  0
  3  4  2  0  0  0
  4  5  1  0  0  0
  5  6  1  0  0  0
  5  7  2  0  0  0
  6  9  1  0  0  0
  7  8  1  0  0  0
 10 11  2  0  0  0
 10 12  1  0  0  0
 12 14  1  0  0  0
 12 13  1  0  0  0
 14 58  1  0  0  0
 14 15  1  0  0  0
 58 59  1  0  0  0
 59 60  1  0  0  0
 60 61  1  0  0  0
 61 62  1  0  0  0
 62 63  1  0  0  0
 62 64  1  0  0  0
 15 16  2  0  0  0
 15 17  1  0  0  0
 17 19  1  0  0  0
 17 18  1  0  0  0
 19 51  1  0  0  0
 19 20  1  0  0  0
 51 52  1  0  0  0
 52 53  1  0  0  0
 53 54  2  0  0  0
 53 55  1  0  0  0
 55 56  1  0  0  0
 55 57  1  0  0  0
 20 21  2  0  0  0
 20 22  1  0  0  0
 22 24  1  0  0  0
 22 23  1  0  0  0
 24 44  1  0  0  0
 24 25  1  0  0  0
 44 45  1  0  0  0
 45 49  1  0  0  0
 45 46  2  0  0  0
 46 47  1  0  0  0
 47 48  2  0  0  0
 48 49  1  0  0  0
 49 50  1  0  0  0
 25 26  2  0  0  0
 25 27  1  0  0  0
 27 29  1  0  0  0
 27 28  1  0  0  0
 29 41  1  0  0  0
 29 30  1  0  0  0
 41 42  1  0  0  0
 42 43  1  0  0  0
 30 31  2  0  0  0
 30 32  1  0  0  0
 32 36  1  0  0  0
 32 33  1  0  0  0
 33 34  1  0  0  0
 34 35  1  0  0  0
 35 36  1  0  0  0
 36 37  1  0  0  0
 37 38  1  0  0  0
 37 39  2  0  0  0
 38 40  1  0  0  0
 99100  1  0  0  0
 99101  1  0  0  0
100102  1  0  0  0
M  END
> <minimizedAffinity>
-3.67441

$$$$



126129  0  0  0  0  0  0  0  0999 V2000
   20.0353   27.3324   56.7335 C   0  0  0  0  0  0  0  0  0  0  0  0
   19.3657   26.6252   56.9606 C   0  0  0  0  0  0  0  0  0  0  0  0
   19.6513   25.8093   57.4632 C   0  0  0  0  0  0  0  0  0  0  0  0
   18.9817   25.1020   57.6903 C   0  0  0  0  0  0  0  0  0  0  0  0
   18.0266   25.2108   57.4147 C   0  0  0  0  0  0  0  0  0  0  0  0
   17.3570   24.5036   57.6418 O   0  0  0  0  0  0  0  0  0  0  0  0
   17.7410   26.0268   56.9121 C   0  0  0  0  0  0  0  0  0  0  0  0
   18.4105   26.7340   56.6850 C   0  0  0  0  0  0  0  0  0  0  0  0
   17.6246   23.7390   58.1128 H   0  0  0  0  0  0  0  0  0  0  0  0
   20.2739   27.5067   55.7782 C   0  0  0  0  0  0  0  0  0  0  0  0
   19.5629   27.4951   55.0751 O   0  0  0  0  0  0  0  0  0  0  0  0
   21.2235   27.6926   55.5260 N   0  0  0  0  0  0  0  0  0  0  0  0
   21.9235   27.7040   56.2182 H   0  0  0  0  0  0  0  0  0  0  0  0
   21.4622   27.8669   54.5706 C   0  0  0  0  0  0  0  0  0  0  0  0
   21.4717   28.8035   54.2205 C   0  0  0  0  0  0  0  0  0  0  0  0
   21.8181   29.5474   54.7919 O   0  0  0  0  0  0  0  0  0  0  0  0
   21.1348   28.9963   53.2989 N   0  0  0  0  0  0  0  0  0  0  0  0
   20.7938   28.2639   52.7363 H   0  0  0  0  0  0  0  0  0  0  0  0
   21.1443   29.9329   52.9488 C   0  0  0  0  0  0  0  0  0  0  0  0
   21.8770   30.2305   52.3368 C   0  0  0  0  0  0  0  0  0  0  0  0
   22.1276   29.6702   51.5473 O   0  0  0  0  0  0  0  0  0  0  0  0
   22.3593   31.0884   52.5142 N   0  0  0  0  0  0  0  0  0  0  0  0
   22.1126   31.6401   53.2915 H   0  0  0  0  0  0  0  0  0  0  0  0
   23.0920   31.3860   51.9023 C   0  0  0  0  0  0  0  0  0  0  0  0
   22.9185   32.1014   51.2254 C   0  0  0  0  0  0  0  0  0  0  0  0
   22.4864   32.9591   51.5040 O   0  0  0  0  0  0  0  0  0  0  0  0
   23.1770   31.9590   50.2699 N   0  0  0  0  0  0  0  0  0  0  0  0
   23.6024   31.1146   49.9957 H   0  0  0  0  0  0  0  0  0  0  0  0
   23.0035   32.6743   49.5931 C   0  0  0  0  0  0  0  0  0  0  0  0
   22.2178   32.6014   48.9787 C   0  0  0  0  0  0  0  0  0  0  0  0
   21.4929   33.2895   49.0102 O   0  0  0  0  0  0  0  0  0  0  0  0
   22.1571   31.8403   48.3328 N   0  0  0  0  0  0  0  0  0  0  0  0
   22.8270   31.1057   48.2255 C   0  0  0  0  0  0  0  0  0  0  0  0
   22.4997   30.4917   47.5072 C   0  0  0  0  0  0  0  0  0  0  0  0
   21.6276   30.8469   47.1708 C   0  0  0  0  0  0  0  0  0  0  0  0
   21.4159   31.6804   47.6810 C   0  0  0  0  0  0  0  0  0  0  0  0
   20.6052   32.2533   47.5606 C   0  0  0  0  0  0  0  0  0  0  0  0
   20.6067   32.9846   46.8785 O   0  0  0  0  0  0  0  0  0  0  0  0
   19.7931   32.0949   48.1221 O   0  0  0  0  0  0  0  0  0  0  0  0
   21.3676   33.1330   46.3523 H   0  0  0  0  0  0  0  0  0  0  0  0
   23.6157   33.4627   49.5305 C   0  0  0  0  0  0  0  0  0  0  0  0
   24.5002   33.3737   49.0727 S   0  0  0  0  0  0  0  0  0  0  0  0
   24.8708   32.1807   48.5352 H   0  0  0  0  0  0  0  0  0  0  0  0
   23.9982   30.9683   51.9671 C   0  0  0  0  0  0  0  0  0  0  0  0
   24.6390   31.2709   52.6727 C   0  0  0  0  0  0  0  0  0  0  0  0
   24.7891   30.8311   53.5582 C   0  0  0  0  0  0  0  0  0  0  0  0
   25.4850   31.3549   54.0494 N   0  0  0  0  0  0  0  0  0  0  0  0
   25.7650   32.1185   53.4676 C   0  0  0  0  0  0  0  0  0  0  0  0
   25.2421   32.0666   52.6167 N   0  0  0  0  0  0  0  0  0  0  0  0
   25.3093   32.6895   51.8573 H   0  0  0  0  0  0  0  0  0  0  0  0
   20.4211   30.5720   53.2106 C   0  0  0  0  0  0  0  0  0  0  0  0
   19.5523   30.5741   52.7154 C   0  0  0  0  0  0  0  0  0  0  0  0
   18.9750   31.3906   52.7220 C   0  0  0  0  0  0  0  0  0  0  0  0
   19.3118   32.2377   53.1332 O   0  0  0  0  0  0  0  0  0  0  0  0
   18.0611   31.3600   52.3174 N   0  0  0  0  0  0  0  0  0  0  0  0
   17.7296   30.5260   51.9126 H   0  0  0  0  0  0  0  0  0  0  0  0
   17.4928   32.1639   52.3238 H   0  0  0  0  0  0  0  0  0  0  0  0
   21.6914   27.1045   53.9654 C   0  0  0  0  0  0  0  0  0  0  0  0
   22.5240   26.5736   54.1234 C   0  0  0  0  0  0  0  0  0  0  0  0
   22.5916   25.6362   53.7817 C   0  0  0  0  0  0  0  0  0  0  0  0
   23.3810   25.3594   53.2339 C   0  0  0  0  0  0  0  0  0  0  0  0
   23.4488   24.4220   52.8924 N   0  0  0  0  0  0  0  0  0  0  0  0
   22.7126   23.7481   53.1030 H   0  0  0  0  0  0  0  0  0  0  0  0
   24.2539   24.1396   52.3336 H   0  0  0  0  0  0  0  0  0  0  0  0
   20.0378   28.7095   57.7841 C   0  0  0  0  0  0  0  0  0  0  0  0
   19.1785   29.0208   57.3782 O   0  0  0  0  0  0  0  0  0  0  0  0
   20.4662   27.8653   57.4618 N   0  0  0  0  0  0  0  0  0  0  0  0
   21.3121   27.5589   57.8614 H   0  0  0  0  0  0  0  0  0  0  0  0
   20.4687   29.2424   58.5123 C   0  0  0  0  0  0  0  0  0  0  0  0
   21.2924   30.6902   58.0378 C   0  0  0  0  0  0  0  0  0  0  0  0
   22.0525   30.1430   57.6876 O   0  0  0  0  0  0  0  0  0  0  0  0
   20.5004   30.2399   58.4502 N   0  0  0  0  0  0  0  0  0  0  0  0
   19.7520   30.7786   58.7950 H   0  0  0  0  0  0  0  0  0  0  0  0
   21.3241   31.6878   57.9756 C   0  0  0  0  0  0  0  0  0  0  0  0
   19.9383   32.6320   57.5420 C   0  0  0  0  0  0  0  0  0  0  0  0
   20.1444   32.4898   56.5739 O   0  0  0  0  0  0  0  0  0  0  0  0
   20.5282   32.2310   58.2429 N   0  0  0  0  0  0  0  0  0  0  0  0
   20.3254   32.3710   59.1960 H   0  0  0  0  0  0  0  0  0  0  0  0
   19.1424   33.1752   57.8093 C   0  0  0  0  0  0  0  0  0  0  0  0
   18.6729   32.9837   58.6712 C   0  0  0  0  0  0  0  0  0  0  0  0
   18.9835   34.8645   57.4613 C   0  0  0  0  0  0  0  0  0  0  0  0
   19.4774   35.0842   58.3026 O   0  0  0  0  0  0  0  0  0  0  0  0
   18.8160   33.9100   57.2147 N   0  0  0  0  0  0  0  0  0  0  0  0
   18.3297   33.6936   56.3864 H   0  0  0  0  0  0  0  0  0  0  0  0
   18.6571   35.5993   56.8666 C   0  0  0  0  0  0  0  0  0  0  0  0
   19.1190   35.7607   55.2052 C   0  0  0  0  0  0  0  0  0  0  0  0
   18.3715   35.1525   54.9383 O   0  0  0  0  0  0  0  0  0  0  0  0
   19.2618   35.9841   56.1694 N   0  0  0  0  0  0  0  0  0  0  0  0
   19.9978   36.5828   56.4322 H   0  0  0  0  0  0  0  0  0  0  0  0
   19.7238   36.1455   54.5079 C   0  0  0  0  0  0  0  0  0  0  0  0
   21.3761   35.6440   54.3733 C   0  0  0  0  0  0  0  0  0  0  0  0
   21.6307   36.2893   55.0935 O   0  0  0  0  0  0  0  0  0  0  0  0
   20.4227   35.5720   54.0805 N   0  0  0  0  0  0  0  0  0  0  0  0
   20.1720   34.9366   53.3715 H   0  0  0  0  0  0  0  0  0  0  0  0
   22.4252   35.3018   53.0382 N   0  0  0  0  0  0  0  0  0  0  0  0
   22.0751   35.0705   53.9459 C   0  0  0  0  0  0  0  0  0  0  0  0
   23.1380   34.7169   52.6022 H   0  0  0  0  0  0  0  0  0  0  0  0
   22.0694   36.1227   52.5483 H   0  0  0  0  0  0  0  0  0  0  0  0
   22.4239   34.2657   54.4262 C   0  0  0  0  0  0  0  0  0  0  0  0
   21.8836   33.4246   54.4502 O   0  0  0  0  0  0  0  0  0  0  0  0
   23.3129   34.3021   54.8824 C   0  0  0  0  0  0  0  0  0  0  0  0
   21.0211   33.3893   54.0075 H   0  0  0  0  0  0  0  0  0  0  0  0
   19.6296   37.1037   54.2379 C   0  0  0  0  0  0  0  0  0  0  0  0
   19.0493   37.3497   53.4616 C   0  0  0  0  0  0  0  0  0  0  0  0
   19.1578   38.2397   53.0184 C   0  0  0  0  0  0  0  0  0  0  0  0
   19.1324   39.0768   53.5648 O   0  0  0  0  0  0  0  0  0  0  0  0
   19.2918   38.2924   52.0288 N   0  0  0  0  0  0  0  0  0  0  0  0
   19.3168   37.4682   51.4909 H   0  0  0  0  0  0  0  0  0  0  0  0
   19.3986   39.1684   51.5926 H   0  0  0  0  0  0  0  0  0  0  0  0
   17.7260   35.9492   56.9693 C   0  0  0  0  0  0  0  0  0  0  0  0
   17.5428   36.7066   57.5960 C   0  0  0  0  0  0  0  0  0  0  0  0
   16.6082   37.0412   57.7162 C   0  0  0  0  0  0  0  0  0  0  0  0
   16.0469   37.2550   56.9167 O   0  0  0  0  0  0  0  0  0  0  0  0
   16.2347   37.1621   58.6361 N   0  0  0  0  0  0  0  0  0  0  0  0
   16.7873   36.9516   59.4232 H   0  0  0  0  0  0  0  0  0  0  0  0
   15.3145   37.4915   58.7544 H   0  0  0  0  0  0  0  0  0  0  0  0
   22.1518   32.1421   57.6462 C   0  0  0  0  0  0  0  0  0  0  0  0
   22.7125   32.6785   58.2770 O   0  0  0  0  0  0  0  0  0  0  0  0
   23.5154   33.1192   57.9574 H   0  0  0  0  0  0  0  0  0  0  0  0
   20.8679   28.7777   59.3028 C   0  0  0  0  0  0  0  0  0  0  0  0
   20.3619   28.7320   60.1641 C   0  0  0  0  0  0  0  0  0  0  0  0
   20.3991   29.4037   60.9040 C   0  0  0  0  0  0  0  0  0  0  0  0
   19.7900   29.0934   61.6340 N   0  0  0  0  0  0  0  0  0  0  0  0
   19.3763   28.2300   61.3451 C   0  0  0  0  0  0  0  0  0  0  0  0
   19.7298   28.0067   60.4367 N   0  0  0  0  0  0  0  0  0  0  0  0
   19.4964   27.2121   59.9042 H   0  0  0  0  0  0  0  0  0  0  0  0
 95 96  1  0  0  0
 95 97  1  0  0  0
 95 98  1  0  0  0
 96 91  1  0  0  0
 96 99  1  0  0  0
 91 92  2  0  0  0
 91 93  1  0  0  0
 93 90  1  0  0  0
 93 94  1  0  0  0
 90103  1  0  0  0
 90 86  1  0  0  0
103104  1  0  0  0
104105  1  0  0  0
105106  2  0  0  0
105107  1  0  0  0
107108  1  0  0  0
107109  1  0  0  0
 86 87  2  0  0  0
 86 88  1  0  0  0
 88 85  1  0  0  0
 88 89  1  0  0  0
 85110  1  0  0  0
 85 81  1  0  0  0
110111  1  0  0  0
111112  1  0  0  0
112113  2  0  0  0
112114  1  0  0  0
114115  1  0  0  0
114116  1  0  0  0
 81 82  2  0  0  0
 81 83  1  0  0  0
 83 79  1  0  0  0
 83 84  1  0  0  0
 79 80  1  0  0  0
 79 75  1  0  0  0
 75 76  2  0  0  0
 75 77  1  0  0  0
 77 74  1  0  0  0
 77 78  1  0  0  0
 74117  1  0  0  0
 74 70  1  0  0  0
117118  1  0  0  0
118119  1  0  0  0
 70 71  2  0  0  0
 70 72  1  0  0  0
 72 69  1  0  0  0
 72 73  1  0  0  0
 69120  1  0  0  0
 69 65  1  0  0  0
120121  1  0  0  0
121125  1  0  0  0
121122  2  0  0  0
122123  1  0  0  0
123124  2  0  0  0
124125  1  0  0  0
125126  1  0  0  0
 65 66  2  0  0  0
 65 67  1  0  0  0
 67  1  1  0  0  0
 67 68  1  0  0  0
  1  2  1  0  0  0
  1 10  1  0  0  0
  2  8  2  0  0  0
  2  3  1  0  0  0
  3  4  2  0  0  0
  4  5  1  0  0  0
  5  6  1  0  0  0
  5  7  2  0  0  0
  6  9  1  0  0  0
  7  8  1  0  0  0
 10 11  2  0  0  0
 10 12  1  0  0  0
 12 14  1  0  0  0
 12 13  1  0  0  0
 14 58  1  0  0  0
 14 15  1  0  0  0
 58 59  1  0  0  0
 59 60  1  0  0  0
 60 61  1  0  0  0
 61 62  1  0  0  0
 62 63  1  0  0  0
 62 64  1  0  0  0
 15 16  2  0  0  0
 15 17  1  0  0  0
 17 19  1  0  0  0
 17 18  1  0  0  0
 19 51  1  0  0  0
 19 20  1  0  0  0
 51 52  1  0  0  0
 52 53  1  0  0  0
 53 54  2  0  0  0
 53 55  1  0  0  0
 55 56  1  0  0  0
 55 57  1  0  0  0
 20 21  2  0  0  0
 20 22  1  0  0  0
 22 24  1  0  0  0
 22 23  1  0  0  0
 24 44  1  0  0  0
 24 25  1  0  0  0
 44 45  1  0  0  0
 45 49  1  0  0  0
 45 46  2  0  0  0
 46 47  1  0  0  0
 47 48  2  0  0  0
 48 49  1  0  0  0
 49 50  1  0  0  0
 25 26  2  0  0  0
 25 27  1  0  0  0
 27 29  1  0  0  0
 27 28  1  0  0  0
 29 41  1  0  0  0
 29 30  1  0  0  0
 41 42  1  0  0  0
 42 43  1  0  0  0
 30 31  2  0  0  0
 30 32  1  0  0  0
 32 36  1  0  0  0
 32 33  1  0  0  0
 33 34  1  0  0  0
 34 35  1  0  0  0
 35 36  1  0  0  0
 36 37  1  0  0  0
 37 38  1  0  0  0
 37 39  2  0  0  0
 38 40  1  0  0  0
 99100  1  0  0  0
 99101  1  0  0  0
100102  1  0  0  0
M  END
> <minimizedAffinity>
-3.65361

$$$$



126129  0  0  0  0  0  0  0  0999 V2000
   22.1244   28.8238   52.9070 C   0  0  0  0  0  0  0  0  0  0  0  0
   21.5440   29.5512   53.2732 C   0  0  0  0  0  0  0  0  0  0  0  0
   21.9512   30.3006   53.7953 C   0  0  0  0  0  0  0  0  0  0  0  0
   21.3708   31.0280   54.1615 C   0  0  0  0  0  0  0  0  0  0  0  0
   20.3832   31.0059   54.0057 C   0  0  0  0  0  0  0  0  0  0  0  0
   19.8029   31.7333   54.3719 O   0  0  0  0  0  0  0  0  0  0  0  0
   19.9761   30.2565   53.4836 C   0  0  0  0  0  0  0  0  0  0  0  0
   20.5564   29.5291   53.1174 C   0  0  0  0  0  0  0  0  0  0  0  0
   20.1844   32.4355   54.8610 H   0  0  0  0  0  0  0  0  0  0  0  0
   22.3191   28.0136   53.4598 C   0  0  0  0  0  0  0  0  0  0  0  0
   22.2232   27.1015   53.0611 O   0  0  0  0  0  0  0  0  0  0  0  0
   22.6097   28.1154   54.4111 N   0  0  0  0  0  0  0  0  0  0  0  0
   22.7041   29.0133   54.8036 H   0  0  0  0  0  0  0  0  0  0  0  0
   22.8045   27.3051   54.9640 C   0  0  0  0  0  0  0  0  0  0  0  0
   22.1105   26.9475   55.5889 C   0  0  0  0  0  0  0  0  0  0  0  0
   22.0055   25.9601   55.7072 O   0  0  0  0  0  0  0  0  0  0  0  0
   21.5216   27.5772   56.0953 N   0  0  0  0  0  0  0  0  0  0  0  0
   21.6250   28.5493   55.9787 H   0  0  0  0  0  0  0  0  0  0  0  0
   20.8276   27.2197   56.7202 C   0  0  0  0  0  0  0  0  0  0  0  0
   21.0278   27.1393   57.6967 C   0  0  0  0  0  0  0  0  0  0  0  0
   21.5302   27.8658   58.1655 O   0  0  0  0  0  0  0  0  0  0  0  0
   20.7257   26.3324   58.2043 N   0  0  0  0  0  0  0  0  0  0  0  0
   20.2311   25.6171   57.7427 H   0  0  0  0  0  0  0  0  0  0  0  0
   20.9259   26.2520   59.1807 C   0  0  0  0  0  0  0  0  0  0  0  0
   21.6306   25.6164   59.4960 C   0  0  0  0  0  0  0  0  0  0  0  0
   21.4533   24.6323   59.4940 O   0  0  0  0  0  0  0  0  0  0  0  0
   22.5126   25.9649   59.8132 N   0  0  0  0  0  0  0  0  0  0  0  0
   22.6871   26.9338   59.8151 H   0  0  0  0  0  0  0  0  0  0  0  0
   23.2173   25.3293   60.1284 C   0  0  0  0  0  0  0  0  0  0  0  0
   23.9456   25.0416   59.5064 C   0  0  0  0  0  0  0  0  0  0  0  0
   24.0058   24.0871   59.2145 O   0  0  0  0  0  0  0  0  0  0  0  0
   24.6137   25.7086   59.1763 N   0  0  0  0  0  0  0  0  0  0  0  0
   24.6380   26.6808   59.4092 C   0  0  0  0  0  0  0  0  0  0  0  0
   25.4141   27.0934   58.9322 C   0  0  0  0  0  0  0  0  0  0  0  0
   25.8693   26.3762   58.4046 C   0  0  0  0  0  0  0  0  0  0  0  0
   25.3746   25.5204   58.5554 C   0  0  0  0  0  0  0  0  0  0  0  0
   25.6011   24.6322   58.1556 C   0  0  0  0  0  0  0  0  0  0  0  0
   25.1629   24.3402   57.3055 O   0  0  0  0  0  0  0  0  0  0  0  0
   26.2658   24.0360   58.6060 O   0  0  0  0  0  0  0  0  0  0  0  0
   24.5401   24.8988   56.8835 H   0  0  0  0  0  0  0  0  0  0  0  0
   23.1938   24.9813   61.0656 C   0  0  0  0  0  0  0  0  0  0  0  0
   23.3809   25.5958   61.8320 S   0  0  0  0  0  0  0  0  0  0  0  0
   23.6674   26.9049   61.5997 H   0  0  0  0  0  0  0  0  0  0  0  0
   20.4214   26.8072   59.8420 C   0  0  0  0  0  0  0  0  0  0  0  0
   19.5522   26.4784   60.2111 C   0  0  0  0  0  0  0  0  0  0  0  0
   18.6482   26.6331   59.8126 C   0  0  0  0  0  0  0  0  0  0  0  0
   17.9716   26.1874   60.3988 N   0  0  0  0  0  0  0  0  0  0  0  0
   18.4575   25.7571   61.1597 C   0  0  0  0  0  0  0  0  0  0  0  0
   19.4344   25.9370   61.0436 N   0  0  0  0  0  0  0  0  0  0  0  0
   20.1538   25.6342   61.6437 H   0  0  0  0  0  0  0  0  0  0  0  0
   19.9334   26.9424   56.3687 C   0  0  0  0  0  0  0  0  0  0  0  0
   19.2628   27.6359   56.1055 C   0  0  0  0  0  0  0  0  0  0  0  0
   18.3821   27.3592   55.7210 C   0  0  0  0  0  0  0  0  0  0  0  0
   18.2344   27.3957   54.7326 O   0  0  0  0  0  0  0  0  0  0  0  0
   17.6491   27.0460   56.3249 N   0  0  0  0  0  0  0  0  0  0  0  0
   17.7946   27.0101   57.2979 H   0  0  0  0  0  0  0  0  0  0  0  0
   16.7820   26.7736   55.9464 H   0  0  0  0  0  0  0  0  0  0  0  0
   23.6933   26.8524   54.8918 C   0  0  0  0  0  0  0  0  0  0  0  0
   24.5196   27.3204   55.2052 C   0  0  0  0  0  0  0  0  0  0  0  0
   25.4174   26.9090   55.0478 C   0  0  0  0  0  0  0  0  0  0  0  0
   26.0126   27.2677   54.3287 C   0  0  0  0  0  0  0  0  0  0  0  0
   26.6967   26.6748   53.9039 N   0  0  0  0  0  0  0  0  0  0  0  0
   26.7874   25.7042   54.2042 H   0  0  0  0  0  0  0  0  0  0  0  0
   27.3038   27.0406   53.1704 H   0  0  0  0  0  0  0  0  0  0  0  0
   23.4462   29.2363   51.8666 C   0  0  0  0  0  0  0  0  0  0  0  0
   23.9970   29.4830   52.6641 O   0  0  0  0  0  0  0  0  0  0  0  0
   22.5100   28.9067   51.9881 N   0  0  0  0  0  0  0  0  0  0  0  0
   21.9678   28.6639   51.2031 H   0  0  0  0  0  0  0  0  0  0  0  0
   23.8318   29.3192   50.9477 C   0  0  0  0  0  0  0  0  0  0  0  0
   24.2850   27.9382   50.0056 C   0  0  0  0  0  0  0  0  0  0  0  0
   23.3428   27.8493   49.6827 O   0  0  0  0  0  0  0  0  0  0  0  0
   24.5295   28.6732   50.6380 N   0  0  0  0  0  0  0  0  0  0  0  0
   25.4572   28.7608   50.9559 H   0  0  0  0  0  0  0  0  0  0  0  0
   24.9827   27.2922   49.6959 C   0  0  0  0  0  0  0  0  0  0  0  0
   25.6607   25.9876   50.6116 C   0  0  0  0  0  0  0  0  0  0  0  0
   26.3990   26.5876   50.9196 O   0  0  0  0  0  0  0  0  0  0  0  0
   24.9525   26.3400   49.9997 N   0  0  0  0  0  0  0  0  0  0  0  0
   24.2255   25.7494   49.6965 H   0  0  0  0  0  0  0  0  0  0  0  0
   25.6304   25.0354   50.9154 C   0  0  0  0  0  0  0  0  0  0  0  0
   24.7753   24.6470   51.2588 C   0  0  0  0  0  0  0  0  0  0  0  0
   26.7025   23.8919   51.6523 C   0  0  0  0  0  0  0  0  0  0  0  0
   26.1248   23.8762   52.4683 O   0  0  0  0  0  0  0  0  0  0  0  0
   26.4553   24.4715   50.8758 N   0  0  0  0  0  0  0  0  0  0  0  0
   27.0241   24.4870   50.0723 H   0  0  0  0  0  0  0  0  0  0  0  0
   27.5274   23.3280   51.6127 C   0  0  0  0  0  0  0  0  0  0  0  0
   28.9843   23.8884   52.3633 C   0  0  0  0  0  0  0  0  0  0  0  0
   29.1690   24.4696   51.5707 O   0  0  0  0  0  0  0  0  0  0  0  0
   28.1635   23.3177   52.3843 N   0  0  0  0  0  0  0  0  0  0  0  0
   27.9816   22.7456   53.1645 H   0  0  0  0  0  0  0  0  0  0  0  0
   29.6203   23.8781   53.1349 C   0  0  0  0  0  0  0  0  0  0  0  0
   29.1536   24.5478   54.6625 C   0  0  0  0  0  0  0  0  0  0  0  0
   29.3763   25.4638   54.3290 O   0  0  0  0  0  0  0  0  0  0  0  0
   29.2756   23.7549   54.0654 N   0  0  0  0  0  0  0  0  0  0  0  0
   29.0564   22.8530   54.3937 H   0  0  0  0  0  0  0  0  0  0  0  0
   27.8894   24.0604   55.7416 N   0  0  0  0  0  0  0  0  0  0  0  0
   28.8088   24.4245   55.5931 C   0  0  0  0  0  0  0  0  0  0  0  0
   27.5377   23.9347   56.6907 H   0  0  0  0  0  0  0  0  0  0  0  0
   27.3032   23.8148   54.9437 H   0  0  0  0  0  0  0  0  0  0  0  0
   29.3835   24.6653   56.3753 C   0  0  0  0  0  0  0  0  0  0  0  0
   30.2340   24.1667   56.5431 O   0  0  0  0  0  0  0  0  0  0  0  0
   29.1078   25.4046   56.9895 C   0  0  0  0  0  0  0  0  0  0  0  0
   30.5015   23.4495   55.9472 H   0  0  0  0  0  0  0  0  0  0  0  0
   30.6011   23.9910   52.9759 C   0  0  0  0  0  0  0  0  0  0  0  0
   31.2049   23.1940   52.9897 C   0  0  0  0  0  0  0  0  0  0  0  0
   32.1923   23.3164   53.0904 C   0  0  0  0  0  0  0  0  0  0  0  0
   32.5513   23.9222   53.8004 O   0  0  0  0  0  0  0  0  0  0  0  0
   32.8207   22.8328   52.4810 N   0  0  0  0  0  0  0  0  0  0  0  0
   32.4672   22.2364   51.7820 H   0  0  0  0  0  0  0  0  0  0  0  0
   33.7927   22.9533   52.5801 H   0  0  0  0  0  0  0  0  0  0  0  0
   27.7163   22.7744   50.8016 C   0  0  0  0  0  0  0  0  0  0  0  0
   27.6543   21.7776   50.8511 C   0  0  0  0  0  0  0  0  0  0  0  0
   27.9551   21.2190   50.0782 C   0  0  0  0  0  0  0  0  0  0  0  0
   28.8528   21.3767   49.6666 O   0  0  0  0  0  0  0  0  0  0  0  0
   27.3583   20.5025   49.7168 N   0  0  0  0  0  0  0  0  0  0  0  0
   26.4746   20.3472   50.1219 H   0  0  0  0  0  0  0  0  0  0  0  0
   27.6545   19.9525   48.9558 H   0  0  0  0  0  0  0  0  0  0  0  0
   25.7106   27.5985   49.0825 C   0  0  0  0  0  0  0  0  0  0  0  0
   25.5324   27.6928   48.1030 O   0  0  0  0  0  0  0  0  0  0  0  0
   26.2386   27.9899   47.5080 H   0  0  0  0  0  0  0  0  0  0  0  0
   23.5197   30.0482   50.3383 C   0  0  0  0  0  0  0  0  0  0  0  0
   24.0418   30.8980   50.2669 C   0  0  0  0  0  0  0  0  0  0  0  0
   24.7161   31.1161   49.5615 C   0  0  0  0  0  0  0  0  0  0  0  0
   25.0724   32.0319   49.7470 N   0  0  0  0  0  0  0  0  0  0  0  0
   24.6181   32.3798   50.5672 C   0  0  0  0  0  0  0  0  0  0  0  0
   23.9812   31.6790   50.8885 N   0  0  0  0  0  0  0  0  0  0  0  0
   23.3971   31.7462   51.6781 H   0  0  0  0  0  0  0  0  0  0  0  0
 95 96  1  0  0  0
 95 97  1  0  0  0
 95 98  1  0  0  0
 96 91  1  0  0  0
 96 99  1  0  0  0
 91 92  2  0  0  0
 91 93  1  0  0  0
 93 90  1  0  0  0
 93 94  1  0  0  0
 90103  1  0  0  0
 90 86  1  0  0  0
103104  1  0  0  0
104105  1  0  0  0
105106  2  0  0  0
105107  1  0  0  0
107108  1  0  0  0
107109  1  0  0  0
 86 87  2  0  0  0
 86 88  1  0  0  0
 88 85  1  0  0  0
 88 89  1  0  0  0
 85110  1  0  0  0
 85 81  1  0  0  0
110111  1  0  0  0
111112  1  0  0  0
112113  2  0  0  0
112114  1  0  0  0
114115  1  0  0  0
114116  1  0  0  0
 81 82  2  0  0  0
 81 83  1  0  0  0
 83 79  1  0  0  0
 83 84  1  0  0  0
 79 80  1  0  0  0
 79 75  1  0  0  0
 75 76  2  0  0  0
 75 77  1  0  0  0
 77 74  1  0  0  0
 77 78  1  0  0  0
 74117  1  0  0  0
 74 70  1  0  0  0
117118  1  0  0  0
118119  1  0  0  0
 70 71  2  0  0  0
 70 72  1  0  0  0
 72 69  1  0  0  0
 72 73  1  0  0  0
 69120  1  0  0  0
 69 65  1  0  0  0
120121  1  0  0  0
121125  1  0  0  0
121122  2  0  0  0
122123  1  0  0  0
123124  2  0  0  0
124125  1  0  0  0
125126  1  0  0  0
 65 66  2  0  0  0
 65 67  1  0  0  0
 67  1  1  0  0  0
 67 68  1  0  0  0
  1  2  1  0  0  0
  1 10  1  0  0  0
  2  8  2  0  0  0
  2  3  1  0  0  0
  3  4  2  0  0  0
  4  5  1  0  0  0
  5  6  1  0  0  0
  5  7  2  0  0  0
  6  9  1  0  0  0
  7  8  1  0  0  0
 10 11  2  0  0  0
 10 12  1  0  0  0
 12 14  1  0  0  0
 12 13  1  0  0  0
 14 58  1  0  0  0
 14 15  1  0  0  0
 58 59  1  0  0  0
 59 60  1  0  0  0
 60 61  1  0  0  0
 61 62  1  0  0  0
 62 63  1  0  0  0
 62 64  1  0  0  0
 15 16  2  0  0  0
 15 17  1  0  0  0
 17 19  1  0  0  0
 17 18  1  0  0  0
 19 51  1  0  0  0
 19 20  1  0  0  0
 51 52  1  0  0  0
 52 53  1  0  0  0
 53 54  2  0  0  0
 53 55  1  0  0  0
 55 56  1  0  0  0
 55 57  1  0  0  0
 20 21  2  0  0  0
 20 22  1  0  0  0
 22 24  1  0  0  0
 22 23  1  0  0  0
 24 44  1  0  0  0
 24 25  1  0  0  0
 44 45  1  0  0  0
 45 49  1  0  0  0
 45 46  2  0  0  0
 46 47  1  0  0  0
 47 48  2  0  0  0
 48 49  1  0  0  0
 49 50  1  0  0  0
 25 26  2  0  0  0
 25 27  1  0  0  0
 27 29  1  0  0  0
 27 28  1  0  0  0
 29 41  1  0  0  0
 29 30  1  0  0  0
 41 42  1  0  0  0
 42 43  1  0  0  0
 30 31  2  0  0  0
 30 32  1  0  0  0
 32 36  1  0  0  0
 32 33  1  0  0  0
 33 34  1  0  0  0
 34 35  1  0  0  0
 35 36  1  0  0  0
 36 37  1  0  0  0
 37 38  1  0  0  0
 37 39  2  0  0  0
 38 40  1  0  0  0
 99100  1  0  0  0
 99101  1  0  0  0
100102  1  0  0  0
M  END
> <minimizedAffinity>
-3.65016

$$$$



126129  0  0  0  0  0  0  0  0999 V2000
   25.1559   26.1270   51.6052 C   0  0  0  0  0  0  0  0  0  0  0  0
   25.8284   25.3984   51.7350 C   0  0  0  0  0  0  0  0  0  0  0  0
   26.7546   25.6212   52.0392 C   0  0  0  0  0  0  0  0  0  0  0  0
   27.4272   24.8925   52.1689 C   0  0  0  0  0  0  0  0  0  0  0  0
   27.1734   23.9410   51.9945 C   0  0  0  0  0  0  0  0  0  0  0  0
   27.8459   23.2124   52.1243 O   0  0  0  0  0  0  0  0  0  0  0  0
   26.2472   23.7182   51.6904 C   0  0  0  0  0  0  0  0  0  0  0  0
   25.5747   24.4469   51.5606 C   0  0  0  0  0  0  0  0  0  0  0  0
   28.7138   23.4212   52.4093 H   0  0  0  0  0  0  0  0  0  0  0  0
   24.3460   26.1698   52.1902 C   0  0  0  0  0  0  0  0  0  0  0  0
   23.6315   25.4753   52.1065 O   0  0  0  0  0  0  0  0  0  0  0  0
   24.2507   26.9072   52.8589 N   0  0  0  0  0  0  0  0  0  0  0  0
   24.9542   27.5910   52.9413 H   0  0  0  0  0  0  0  0  0  0  0  0
   23.4407   26.9501   53.4439 C   0  0  0  0  0  0  0  0  0  0  0  0
   23.4191   26.4436   54.3059 C   0  0  0  0  0  0  0  0  0  0  0  0
   22.6234   25.8839   54.5371 O   0  0  0  0  0  0  0  0  0  0  0  0
   24.1933   26.4969   54.9366 N   0  0  0  0  0  0  0  0  0  0  0  0
   24.9767   27.0479   54.7089 H   0  0  0  0  0  0  0  0  0  0  0  0
   24.1717   25.9904   55.7986 C   0  0  0  0  0  0  0  0  0  0  0  0
   23.7782   26.4112   56.6159 C   0  0  0  0  0  0  0  0  0  0  0  0
   23.9394   27.3795   56.8068 O   0  0  0  0  0  0  0  0  0  0  0  0
   23.2235   25.8636   57.2425 N   0  0  0  0  0  0  0  0  0  0  0  0
   23.0648   24.9103   57.0545 H   0  0  0  0  0  0  0  0  0  0  0  0
   22.8299   26.2844   58.0598 C   0  0  0  0  0  0  0  0  0  0  0  0
   21.9165   26.6896   58.0231 C   0  0  0  0  0  0  0  0  0  0  0  0
   21.7198   27.5264   58.5341 O   0  0  0  0  0  0  0  0  0  0  0  0
   21.1997   26.2580   57.4755 N   0  0  0  0  0  0  0  0  0  0  0  0
   21.3933   25.4342   56.9724 H   0  0  0  0  0  0  0  0  0  0  0  0
   20.2862   26.6632   57.4388 C   0  0  0  0  0  0  0  0  0  0  0  0
   19.8143   26.7539   56.5618 C   0  0  0  0  0  0  0  0  0  0  0  0
   19.3332   25.9700   56.1695 O   0  0  0  0  0  0  0  0  0  0  0  0
   19.8236   27.6286   56.0771 N   0  0  0  0  0  0  0  0  0  0  0  0
   20.2742   28.4665   56.3851 C   0  0  0  0  0  0  0  0  0  0  0  0
   20.1129   29.1746   55.6977 C   0  0  0  0  0  0  0  0  0  0  0  0
   19.5627   28.7744   54.9649 C   0  0  0  0  0  0  0  0  0  0  0  0
   19.3839   27.8189   55.1994 C   0  0  0  0  0  0  0  0  0  0  0  0
   18.8577   27.1680   54.6522 C   0  0  0  0  0  0  0  0  0  0  0  0
   17.8595   27.1574   54.7109 O   0  0  0  0  0  0  0  0  0  0  0  0
   19.3298   26.5276   54.0463 O   0  0  0  0  0  0  0  0  0  0  0  0
   17.4172   27.7574   55.2786 H   0  0  0  0  0  0  0  0  0  0  0  0
   19.8446   26.9778   58.2791 C   0  0  0  0  0  0  0  0  0  0  0  0
   19.1808   26.3924   58.7445 S   0  0  0  0  0  0  0  0  0  0  0  0
   18.8787   25.1682   58.2347 H   0  0  0  0  0  0  0  0  0  0  0  0
   23.3499   26.2999   58.9139 C   0  0  0  0  0  0  0  0  0  0  0  0
   23.3555   25.4974   59.5105 C   0  0  0  0  0  0  0  0  0  0  0  0
   24.0282   24.7577   59.4945 C   0  0  0  0  0  0  0  0  0  0  0  0
   23.7778   24.0968   60.2020 N   0  0  0  0  0  0  0  0  0  0  0  0
   22.9503   24.4281   60.6553 C   0  0  0  0  0  0  0  0  0  0  0  0
   22.6893   25.2937   60.2279 N   0  0  0  0  0  0  0  0  0  0  0  0
   21.9128   25.8480   60.4709 H   0  0  0  0  0  0  0  0  0  0  0  0
   24.5437   25.0632   55.8432 C   0  0  0  0  0  0  0  0  0  0  0  0
   25.4853   24.8879   55.5560 C   0  0  0  0  0  0  0  0  0  0  0  0
   26.0187   24.1693   56.0023 C   0  0  0  0  0  0  0  0  0  0  0  0
   25.6022   23.6094   56.7187 O   0  0  0  0  0  0  0  0  0  0  0  0
   26.9683   24.0106   55.7323 N   0  0  0  0  0  0  0  0  0  0  0  0
   27.3782   24.5619   55.0270 H   0  0  0  0  0  0  0  0  0  0  0  0
   27.4934   23.3032   56.1717 H   0  0  0  0  0  0  0  0  0  0  0  0
   22.6524   27.4994   53.1669 C   0  0  0  0  0  0  0  0  0  0  0  0
   22.7736   28.4628   52.9275 C   0  0  0  0  0  0  0  0  0  0  0  0
   21.9771   29.0619   52.8467 C   0  0  0  0  0  0  0  0  0  0  0  0
   22.0653   29.9541   52.4038 C   0  0  0  0  0  0  0  0  0  0  0  0
   22.2349   30.7713   52.9547 N   0  0  0  0  0  0  0  0  0  0  0  0
   22.3178   30.6947   53.9685 H   0  0  0  0  0  0  0  0  0  0  0  0
   22.3250   31.6813   52.5030 H   0  0  0  0  0  0  0  0  0  0  0  0
   24.8251   26.7200   50.0119 C   0  0  0  0  0  0  0  0  0  0  0  0
   24.2193   25.9413   49.8479 O   0  0  0  0  0  0  0  0  0  0  0  0
   25.2934   26.8127   50.8905 N   0  0  0  0  0  0  0  0  0  0  0  0
   25.8897   27.5792   51.0520 H   0  0  0  0  0  0  0  0  0  0  0  0
   24.9625   27.4057   49.2971 C   0  0  0  0  0  0  0  0  0  0  0  0
   24.1064   28.9018   49.1275 C   0  0  0  0  0  0  0  0  0  0  0  0
   23.4424   28.4540   48.5288 O   0  0  0  0  0  0  0  0  0  0  0  0
   24.8664   28.3777   49.5117 N   0  0  0  0  0  0  0  0  0  0  0  0
   25.5202   28.8186   50.1012 H   0  0  0  0  0  0  0  0  0  0  0  0
   24.0103   29.8738   49.3421 C   0  0  0  0  0  0  0  0  0  0  0  0
   25.3094   31.0184   49.3911 C   0  0  0  0  0  0  0  0  0  0  0  0
   25.1708   31.2171   48.4209 O   0  0  0  0  0  0  0  0  0  0  0  0
   24.7291   30.3467   49.8517 N   0  0  0  0  0  0  0  0  0  0  0  0
   24.8654   30.1511   50.8068 H   0  0  0  0  0  0  0  0  0  0  0  0
   26.0281   31.4913   49.9007 C   0  0  0  0  0  0  0  0  0  0  0  0
   26.1234   32.4840   49.8262 C   0  0  0  0  0  0  0  0  0  0  0  0
   26.8102   31.2608   51.4288 C   0  0  0  0  0  0  0  0  0  0  0  0
   26.3452   32.0697   51.7887 O   0  0  0  0  0  0  0  0  0  0  0  0
   26.6516   30.9716   50.4847 N   0  0  0  0  0  0  0  0  0  0  0  0
   27.1094   30.1753   50.1303 H   0  0  0  0  0  0  0  0  0  0  0  0
   27.4337   30.7411   52.0129 C   0  0  0  0  0  0  0  0  0  0  0  0
   26.7020   29.7208   53.2061 C   0  0  0  0  0  0  0  0  0  0  0  0
   26.4552   29.0643   52.4933 O   0  0  0  0  0  0  0  0  0  0  0  0
   27.1912   30.5592   52.9659 N   0  0  0  0  0  0  0  0  0  0  0  0
   27.4342   31.2056   53.6676 H   0  0  0  0  0  0  0  0  0  0  0  0
   26.4595   29.5390   54.1590 C   0  0  0  0  0  0  0  0  0  0  0  0
   27.5231   28.6274   55.1778 C   0  0  0  0  0  0  0  0  0  0  0  0
   28.0669   29.4496   55.3457 O   0  0  0  0  0  0  0  0  0  0  0  0
   26.7194   28.6721   54.5844 N   0  0  0  0  0  0  0  0  0  0  0  0
   26.1839   27.8626   54.4190 H   0  0  0  0  0  0  0  0  0  0  0  0
   28.1199   27.0074   55.0380 N   0  0  0  0  0  0  0  0  0  0  0  0
   27.7829   27.7605   55.6031 C   0  0  0  0  0  0  0  0  0  0  0  0
   28.3850   26.1232   55.4718 H   0  0  0  0  0  0  0  0  0  0  0  0
   28.1985   27.1236   54.0276 H   0  0  0  0  0  0  0  0  0  0  0  0
   27.7058   27.6466   56.5936 C   0  0  0  0  0  0  0  0  0  0  0  0
   26.8464   27.8636   57.0565 O   0  0  0  0  0  0  0  0  0  0  0  0
   28.4882   27.3156   57.1212 C   0  0  0  0  0  0  0  0  0  0  0  0
   26.0875   28.1846   56.5446 H   0  0  0  0  0  0  0  0  0  0  0  0
   25.9571   30.2240   54.6866 C   0  0  0  0  0  0  0  0  0  0  0  0
   25.0038   30.0596   54.9400 C   0  0  0  0  0  0  0  0  0  0  0  0
   24.5943   30.5641   55.7002 C   0  0  0  0  0  0  0  0  0  0  0  0
   24.9896   30.4960   56.6162 O   0  0  0  0  0  0  0  0  0  0  0  0
   23.7895   31.1368   55.5442 N   0  0  0  0  0  0  0  0  0  0  0  0
   23.4004   31.2039   54.6424 H   0  0  0  0  0  0  0  0  0  0  0  0
   23.3864   31.6336   56.2925 H   0  0  0  0  0  0  0  0  0  0  0  0
   28.2996   30.4033   51.6441 C   0  0  0  0  0  0  0  0  0  0  0  0
   29.1646   30.7859   51.9689 C   0  0  0  0  0  0  0  0  0  0  0  0
   30.0314   30.4244   51.6256 C   0  0  0  0  0  0  0  0  0  0  0  0
   30.3596   30.6893   50.7189 O   0  0  0  0  0  0  0  0  0  0  0  0
   30.5702   29.7980   52.1890 N   0  0  0  0  0  0  0  0  0  0  0  0
   30.2471   29.5371   53.0817 H   0  0  0  0  0  0  0  0  0  0  0  0
   31.4236   29.4421   51.8510 H   0  0  0  0  0  0  0  0  0  0  0  0
   23.1955   30.3728   49.0470 C   0  0  0  0  0  0  0  0  0  0  0  0
   22.5410   30.7070   49.7252 O   0  0  0  0  0  0  0  0  0  0  0  0
   21.7506   31.1911   49.4390 H   0  0  0  0  0  0  0  0  0  0  0  0
   25.1959   27.1195   48.3678 C   0  0  0  0  0  0  0  0  0  0  0  0
   26.1530   26.9833   48.1121 C   0  0  0  0  0  0  0  0  0  0  0  0
   26.8073   27.7028   47.8794 C   0  0  0  0  0  0  0  0  0  0  0  0
   27.6827   27.2679   47.6677 N   0  0  0  0  0  0  0  0  0  0  0  0
   27.5692   26.2796   47.7696 C   0  0  0  0  0  0  0  0  0  0  0  0
   26.6239   26.1038   48.0443 N   0  0  0  0  0  0  0  0  0  0  0  0
   26.2265   25.2198   48.2175 H   0  0  0  0  0  0  0  0  0  0  0  0
 95 96  1  0  0  0
 95 97  1  0  0  0
 95 98  1  0  0  0
 96 91  1  0  0  0
 96 99  1  0  0  0
 91 92  2  0  0  0
 91 93  1  0  0  0
 93 90  1  0  0  0
 93 94  1  0  0  0
 90103  1  0  0  0
 90 86  1  0  0  0
103104  1  0  0  0
104105  1  0  0  0
105106  2  0  0  0
105107  1  0  0  0
107108  1  0  0  0
107109  1  0  0  0
 86 87  2  0  0  0
 86 88  1  0  0  0
 88 85  1  0  0  0
 88 89  1  0  0  0
 85110  1  0  0  0
 85 81  1  0  0  0
110111  1  0  0  0
111112  1  0  0  0
112113  2  0  0  0
112114  1  0  0  0
114115  1  0  0  0
114116  1  0  0  0
 81 82  2  0  0  0
 81 83  1  0  0  0
 83 79  1  0  0  0
 83 84  1  0  0  0
 79 80  1  0  0  0
 79 75  1  0  0  0
 75 76  2  0  0  0
 75 77  1  0  0  0
 77 74  1  0  0  0
 77 78  1  0  0  0
 74117  1  0  0  0
 74 70  1  0  0  0
117118  1  0  0  0
118119  1  0  0  0
 70 71  2  0  0  0
 70 72  1  0  0  0
 72 69  1  0  0  0
 72 73  1  0  0  0
 69120  1  0  0  0
 69 65  1  0  0  0
120121  1  0  0  0
121125  1  0  0  0
121122  2  0  0  0
122123  1  0  0  0
123124  2  0  0  0
124125  1  0  0  0
125126  1  0  0  0
 65 66  2  0  0  0
 65 67  1  0  0  0
 67  1  1  0  0  0
 67 68  1  0  0  0
  1  2  1  0  0  0
  1 10  1  0  0  0
  2  8  2  0  0  0
  2  3  1  0  0  0
  3  4  2  0  0  0
  4  5  1  0  0  0
  5  6  1  0  0  0
  5  7  2  0  0  0
  6  9  1  0  0  0
  7  8  1  0  0  0
 10 11  2  0  0  0
 10 12  1  0  0  0
 12 14  1  0  0  0
 12 13  1  0  0  0
 14 58  1  0  0  0
 14 15  1  0  0  0
 58 59  1  0  0  0
 59 60  1  0  0  0
 60 61  1  0  0  0
 61 62  1  0  0  0
 62 63  1  0  0  0
 62 64  1  0  0  0
 15 16  2  0  0  0
 15 17  1  0  0  0
 17 19  1  0  0  0
 17 18  1  0  0  0
 19 51  1  0  0  0
 19 20  1  0  0  0
 51 52  1  0  0  0
 52 53  1  0  0  0
 53 54  2  0  0  0
 53 55  1  0  0  0
 55 56  1  0  0  0
 55 57  1  0  0  0
 20 21  2  0  0  0
 20 22  1  0  0  0
 22 24  1  0  0  0
 22 23  1  0  0  0
 24 44  1  0  0  0
 24 25  1  0  0  0
 44 45  1  0  0  0
 45 49  1  0  0  0
 45 46  2  0  0  0
 46 47  1  0  0  0
 47 48  2  0  0  0
 48 49  1  0  0  0
 49 50  1  0  0  0
 25 26  2  0  0  0
 25 27  1  0  0  0
 27 29  1  0  0  0
 27 28  1  0  0  0
 29 41  1  0  0  0
 29 30  1  0  0  0
 41 42  1  0  0  0
 42 43  1  0  0  0
 30 31  2  0  0  0
 30 32  1  0  0  0
 32 36  1  0  0  0
 32 33  1  0  0  0
 33 34  1  0  0  0
 34 35  1  0  0  0
 35 36  1  0  0  0
 36 37  1  0  0  0
 37 38  1  0  0  0
 37 39  2  0  0  0
 38 40  1  0  0  0
 99100  1  0  0  0
 99101  1  0  0  0
100102  1  0  0  0
M  END
> <minimizedAffinity>
-3.64408

$$$$
