
 OpenBabel11292307312D

187190  0  0  1  0  0  0  0  0999 V2000
    7.8988    7.5055    0.0000 N   0  0  0  0  0  0  0  0  0  0  0  0
    7.8988    6.5055    0.0000 C   0  0  3  0  0  0  0  0  0  0  0  0
    7.0327    6.0055    0.0000 C   0  0  0  0  0  0  0  0  0  0  0  0
    6.1667    6.5055    0.0000 O   0  0  0  0  0  0  0  0  0  0  0  0
    7.0327    5.0055    0.0000 N   0  0  0  0  0  0  0  0  0  0  0  0
    6.1667    4.5055    0.0000 C   0  0  3  0  0  0  0  0  0  0  0  0
    5.3007    5.0055    0.0000 C   0  0  0  0  0  0  0  0  0  0  0  0
    4.4347    4.5055    0.0000 C   0  0  0  0  0  0  0  0  0  0  0  0
    3.5686    5.0055    0.0000 C   0  0  0  0  0  0  0  0  0  0  0  0
    2.7026    4.5055    0.0000 O   0  0  0  0  0  0  0  0  0  0  0  0
    3.5686    6.0055    0.0000 N   0  0  0  0  0  0  0  0  0  0  0  0
    6.1667    3.5055    0.0000 C   0  0  0  0  0  0  0  0  0  0  0  0
    5.3007    3.0055    0.0000 O   0  0  0  0  0  0  0  0  0  0  0  0
    7.0327    3.0055    0.0000 N   0  0  0  0  0  0  0  0  0  0  0  0
    7.0327    2.0055    0.0000 C   0  0  3  0  0  0  0  0  0  0  0  0
    6.1667    1.5055    0.0000 C   0  0  0  0  0  0  0  0  0  0  0  0
    5.3007    2.0055    0.0000 C   0  0  0  0  0  0  0  0  0  0  0  0
    4.4347    1.5055    0.0000 C   0  0  0  0  0  0  0  0  0  0  0  0
    4.4347    0.5055    0.0000 O   0  0  0  0  0  0  0  0  0  0  0  0
    3.5686    2.0055    0.0000 N   0  0  0  0  0  0  0  0  0  0  0  0
    7.8988    1.5055    0.0000 C   0  0  0  0  0  0  0  0  0  0  0  0
    7.8988    0.5055    0.0000 O   0  0  0  0  0  0  0  0  0  0  0  0
    8.7648    2.0055    0.0000 N   0  0  0  0  0  0  0  0  0  0  0  0
    9.6308    1.5055    0.0000 C   0  0  3  0  0  0  0  0  0  0  0  0
   10.4968    2.0055    0.0000 C   0  0  0  0  0  0  0  0  0  0  0  0
    9.6308    0.5055    0.0000 C   0  0  0  0  0  0  0  0  0  0  0  0
   10.4968    0.0055    0.0000 O   0  0  0  0  0  0  0  0  0  0  0  0
    8.7648    0.0055    0.0000 N   0  0  0  0  0  0  0  0  0  0  0  0
    8.7648   -0.9945    0.0000 C   0  0  3  0  0  0  0  0  0  0  0  0
    7.8988   -1.4945    0.0000 C   0  0  0  0  0  0  0  0  0  0  0  0
    7.8988   -2.4945    0.0000 O   0  0  0  0  0  0  0  0  0  0  0  0
    9.6308   -1.4945    0.0000 C   0  0  0  0  0  0  0  0  0  0  0  0
   10.4968   -0.9945    0.0000 O   0  0  0  0  0  0  0  0  0  0  0  0
    9.6308   -2.4945    0.0000 N   0  0  0  0  0  0  0  0  0  0  0  0
   10.4968   -2.9945    0.0000 C   0  0  3  0  0  0  0  0  0  0  0  0
   11.3629   -2.4945    0.0000 C   0  0  0  0  0  0  0  0  0  0  0  0
   12.2289   -2.9945    0.0000 C   0  0  0  0  0  0  0  0  0  0  0  0
   12.3334   -3.9890    0.0000 C   0  0  0  0  0  0  0  0  0  0  0  0
   13.3116   -4.1970    0.0000 N   0  0  0  0  0  0  0  0  0  0  0  0
   13.8116   -3.3309    0.0000 C   0  0  0  0  0  0  0  0  0  0  0  0
   13.1424   -2.5878    0.0000 N   0  0  0  0  0  0  0  0  0  0  0  0
   10.4968   -3.9945    0.0000 C   0  0  0  0  0  0  0  0  0  0  0  0
   11.3629   -4.4945    0.0000 O   0  0  0  0  0  0  0  0  0  0  0  0
    9.6308   -4.4945    0.0000 N   0  0  0  0  0  0  0  0  0  0  0  0
    9.6308   -5.4945    0.0000 C   0  0  3  0  0  0  0  0  0  0  0  0
   10.4968   -5.9945    0.0000 C   0  0  0  0  0  0  0  0  0  0  0  0
   10.4968   -6.9945    0.0000 C   0  0  0  0  0  0  0  0  0  0  0  0
   11.3629   -7.4945    0.0000 C   0  0  0  0  0  0  0  0  0  0  0  0
   12.2289   -6.9945    0.0000 C   0  0  0  0  0  0  0  0  0  0  0  0
   13.0949   -7.4945    0.0000 O   0  0  0  0  0  0  0  0  0  0  0  0
   12.2289   -5.9945    0.0000 C   0  0  0  0  0  0  0  0  0  0  0  0
   11.3629   -5.4945    0.0000 C   0  0  0  0  0  0  0  0  0  0  0  0
    8.7648   -5.9945    0.0000 C   0  0  0  0  0  0  0  0  0  0  0  0
    8.7648   -6.9945    0.0000 O   0  0  0  0  0  0  0  0  0  0  0  0
    7.8988   -5.4945    0.0000 N   0  0  0  0  0  0  0  0  0  0  0  0
    7.0327   -5.9945    0.0000 C   0  0  3  0  0  0  0  0  0  0  0  0
    7.0327   -6.9945    0.0000 C   0  0  0  0  0  0  0  0  0  0  0  0
    7.8988   -7.4945    0.0000 C   0  0  0  0  0  0  0  0  0  0  0  0
    7.8988   -8.4945    0.0000 C   0  0  0  0  0  0  0  0  0  0  0  0
    8.7648   -8.9945    0.0000 C   0  0  0  0  0  0  0  0  0  0  0  0
    8.7648   -9.9945    0.0000 N   0  0  0  0  0  0  0  0  0  0  0  0
    6.1667   -5.4945    0.0000 C   0  0  0  0  0  0  0  0  0  0  0  0
    5.3007   -5.9945    0.0000 O   0  0  0  0  0  0  0  0  0  0  0  0
    6.1667   -4.4945    0.0000 N   0  0  0  0  0  0  0  0  0  0  0  0
    5.3007   -3.9945    0.0000 C   0  0  3  0  0  0  0  0  0  0  0  0
    5.3007   -2.9945    0.0000 C   0  0  0  0  0  0  0  0  0  0  0  0
    4.4347   -2.4945    0.0000 C   0  0  0  0  0  0  0  0  0  0  0  0
    4.4347   -1.4945    0.0000 C   0  0  0  0  0  0  0  0  0  0  0  0
    3.5686   -0.9945    0.0000 O   0  0  0  0  0  0  0  0  0  0  0  0
    5.3007   -0.9945    0.0000 N   0  0  0  0  0  0  0  0  0  0  0  0
    4.4347   -4.4945    0.0000 C   0  0  0  0  0  0  0  0  0  0  0  0
    4.4347   -5.4945    0.0000 O   0  0  0  0  0  0  0  0  0  0  0  0
    3.5686   -3.9945    0.0000 N   0  0  0  0  0  0  0  0  0  0  0  0
    2.7026   -4.4945    0.0000 C   0  0  3  0  0  0  0  0  0  0  0  0
    2.7026   -5.4945    0.0000 C   0  0  0  0  0  0  0  0  0  0  0  0
    1.8366   -5.9945    0.0000 C   0  0  0  0  0  0  0  0  0  0  0  0
    0.9230   -5.5878    0.0000 C   0  0  0  0  0  0  0  0  0  0  0  0
    0.2539   -6.3309    0.0000 N   0  0  0  0  0  0  0  0  0  0  0  0
    0.7539   -7.1970    0.0000 C   0  0  0  0  0  0  0  0  0  0  0  0
    1.7321   -6.9890    0.0000 N   0  0  0  0  0  0  0  0  0  0  0  0
    1.8366   -3.9945    0.0000 C   0  0  0  0  0  0  0  0  0  0  0  0
    0.9706   -4.4945    0.0000 O   0  0  0  0  0  0  0  0  0  0  0  0
    1.8366   -2.9945    0.0000 N   0  0  0  0  0  0  0  0  0  0  0  0
    0.9706   -2.4945    0.0000 C   0  0  3  0  0  0  0  0  0  0  0  0
    0.1045   -2.9945    0.0000 C   0  0  0  0  0  0  0  0  0  0  0  0
   -0.7615   -2.4945    0.0000 S   0  0  0  0  0  0  0  0  0  0  0  0
    0.9706   -1.4945    0.0000 C   0  0  0  0  0  0  0  0  0  0  0  0
    1.8366   -0.9945    0.0000 O   0  0  0  0  0  0  0  0  0  0  0  0
    0.1045   -0.9945    0.0000 N   0  0  0  0  0  0  0  0  0  0  0  0
   -0.8090   -1.4013    0.0000 C   0  0  0  0  0  0  0  0  0  0  0  0
   -1.4781   -0.6581    0.0000 C   0  0  0  0  0  0  0  0  0  0  0  0
   -0.9781    0.2079    0.0000 C   0  0  0  0  0  0  0  0  0  0  0  0
    0.0000   -0.0000    0.0000 C   0  0  3  0  0  0  0  0  0  0  0  0
    0.7431    0.6691    0.0000 C   0  0  0  0  0  0  0  0  0  0  0  0
    1.6942    0.3601    0.0000 O   0  0  0  0  0  0  0  0  0  0  0  0
    0.5352    1.6473    0.0000 O   0  0  0  0  0  0  0  0  0  0  0  0
    8.7648    6.0055    0.0000 C   0  0  3  0  0  0  0  0  0  0  0  0
    8.7648    5.0055    0.0000 O   0  0  0  0  0  0  0  0  0  0  0  0
    9.6308    6.5055    0.0000 C   0  0  0  0  0  0  0  0  0  0  0  0
    8.7821    8.0155    0.0000 H   0  0  0  0  0  0  0  0  0  0  0  0
    7.0154    8.0155    0.0000 H   0  0  0  0  0  0  0  0  0  0  0  0
    6.9721    7.0405    0.0000 H   0  0  0  0  0  0  0  0  0  0  0  0
    7.8853    4.5132    0.0000 H   0  0  0  0  0  0  0  0  0  0  0  0
    6.1667    5.5755    0.0000 H   0  0  0  0  0  0  0  0  0  0  0  0
    5.3007    6.0755    0.0000 H   0  0  0  0  0  0  0  0  0  0  0  0
    4.3740    5.5405    0.0000 H   0  0  0  0  0  0  0  0  0  0  0  0
    4.4347    3.4355    0.0000 H   0  0  0  0  0  0  0  0  0  0  0  0
    3.5080    3.9705    0.0000 H   0  0  0  0  0  0  0  0  0  0  0  0
    4.4212    6.4977    0.0000 H   0  0  0  0  0  0  0  0  0  0  0  0
    2.7160    6.4977    0.0000 H   0  0  0  0  0  0  0  0  0  0  0  0
    7.8853    3.4977    0.0000 H   0  0  0  0  0  0  0  0  0  0  0  0
    6.1061    2.5405    0.0000 H   0  0  0  0  0  0  0  0  0  0  0  0
    6.1667    0.4355    0.0000 H   0  0  0  0  0  0  0  0  0  0  0  0
    5.2401    0.9705    0.0000 H   0  0  0  0  0  0  0  0  0  0  0  0
    5.3007    3.0755    0.0000 H   0  0  0  0  0  0  0  0  0  0  0  0
    4.3740    2.5405    0.0000 H   0  0  0  0  0  0  0  0  0  0  0  0
    3.5686    2.9900    0.0000 H   0  0  0  0  0  0  0  0  0  0  0  0
    2.7160    1.5132    0.0000 H   0  0  0  0  0  0  0  0  0  0  0  0
    8.7648    2.9900    0.0000 H   0  0  0  0  0  0  0  0  0  0  0  0
    9.6308    2.5755    0.0000 H   0  0  0  0  0  0  0  0  0  0  0  0
   11.4235    1.4705    0.0000 H   0  0  0  0  0  0  0  0  0  0  0  0
   10.4968    3.0755    0.0000 H   0  0  0  0  0  0  0  0  0  0  0  0
   11.4235    2.5405    0.0000 H   0  0  0  0  0  0  0  0  0  0  0  0
    7.9122    0.4977    0.0000 H   0  0  0  0  0  0  0  0  0  0  0  0
    7.8381   -0.4595    0.0000 H   0  0  0  0  0  0  0  0  0  0  0  0
    6.9721   -0.9595    0.0000 H   0  0  0  0  0  0  0  0  0  0  0  0
    6.9721   -2.0295    0.0000 H   0  0  0  0  0  0  0  0  0  0  0  0
    7.0587   -2.9795    0.0000 H   0  0  0  0  0  0  0  0  0  0  0  0
    8.7782   -2.9868    0.0000 H   0  0  0  0  0  0  0  0  0  0  0  0
   10.4968   -1.9245    0.0000 H   0  0  0  0  0  0  0  0  0  0  0  0
   11.3629   -1.4245    0.0000 H   0  0  0  0  0  0  0  0  0  0  0  0
   12.2895   -1.9595    0.0000 H   0  0  0  0  0  0  0  0  0  0  0  0
   11.5665   -4.6796    0.0000 H   0  0  0  0  0  0  0  0  0  0  0  0
   14.8379   -3.2231    0.0000 H   0  0  0  0  0  0  0  0  0  0  0  0
   13.3471   -1.6248    0.0000 H   0  0  0  0  0  0  0  0  0  0  0  0
    8.7782   -4.0023    0.0000 H   0  0  0  0  0  0  0  0  0  0  0  0
   10.5575   -4.9595    0.0000 H   0  0  0  0  0  0  0  0  0  0  0  0
    9.6031   -7.5105    0.0000 H   0  0  0  0  0  0  0  0  0  0  0  0
   11.3629   -8.5265    0.0000 H   0  0  0  0  0  0  0  0  0  0  0  0
   13.0949   -8.4315    0.0000 H   0  0  0  0  0  0  0  0  0  0  0  0
   13.1226   -5.4785    0.0000 H   0  0  0  0  0  0  0  0  0  0  0  0
   11.3629   -4.4625    0.0000 H   0  0  0  0  0  0  0  0  0  0  0  0
    7.8988   -4.5100    0.0000 H   0  0  0  0  0  0  0  0  0  0  0  0
    7.9594   -6.5295    0.0000 H   0  0  0  0  0  0  0  0  0  0  0  0
    6.1061   -7.5295    0.0000 H   0  0  0  0  0  0  0  0  0  0  0  0
    7.0327   -8.0645    0.0000 H   0  0  0  0  0  0  0  0  0  0  0  0
    8.8254   -6.9595    0.0000 H   0  0  0  0  0  0  0  0  0  0  0  0
    8.8254   -8.0295    0.0000 H   0  0  0  0  0  0  0  0  0  0  0  0
    6.9721   -9.0295    0.0000 H   0  0  0  0  0  0  0  0  0  0  0  0
    7.8988   -9.5645    0.0000 H   0  0  0  0  0  0  0  0  0  0  0  0
    9.6914   -8.4595    0.0000 H   0  0  0  0  0  0  0  0  0  0  0  0
    9.6914   -9.5295    0.0000 H   0  0  0  0  0  0  0  0  0  0  0  0
    7.8814  -10.5045    0.0000 H   0  0  0  0  0  0  0  0  0  0  0  0
    9.6481  -10.5045    0.0000 H   0  0  0  0  0  0  0  0  0  0  0  0
    7.0193   -4.0023    0.0000 H   0  0  0  0  0  0  0  0  0  0  0  0
    6.2273   -3.4595    0.0000 H   0  0  0  0  0  0  0  0  0  0  0  0
    6.2273   -2.4595    0.0000 H   0  0  0  0  0  0  0  0  0  0  0  0
    5.3007   -1.9245    0.0000 H   0  0  0  0  0  0  0  0  0  0  0  0
    3.5080   -3.0295    0.0000 H   0  0  0  0  0  0  0  0  0  0  0  0
    3.5080   -1.9595    0.0000 H   0  0  0  0  0  0  0  0  0  0  0  0
    6.1533   -1.4868    0.0000 H   0  0  0  0  0  0  0  0  0  0  0  0
    5.3007   -0.0100    0.0000 H   0  0  0  0  0  0  0  0  0  0  0  0
    3.5686   -3.0100    0.0000 H   0  0  0  0  0  0  0  0  0  0  0  0
    3.6293   -5.0295    0.0000 H   0  0  0  0  0  0  0  0  0  0  0  0
    3.6293   -6.0295    0.0000 H   0  0  0  0  0  0  0  0  0  0  0  0
    2.7026   -6.5645    0.0000 H   0  0  0  0  0  0  0  0  0  0  0  0
    0.7085   -4.5783    0.0000 H   0  0  0  0  0  0  0  0  0  0  0  0
    0.3342   -8.1397    0.0000 H   0  0  0  0  0  0  0  0  0  0  0  0
    2.4637   -7.6478    0.0000 H   0  0  0  0  0  0  0  0  0  0  0  0
    2.6892   -2.5023    0.0000 H   0  0  0  0  0  0  0  0  0  0  0  0
    0.9706   -3.5645    0.0000 H   0  0  0  0  0  0  0  0  0  0  0  0
    0.1045   -4.0645    0.0000 H   0  0  0  0  0  0  0  0  0  0  0  0
   -0.8221   -3.5295    0.0000 H   0  0  0  0  0  0  0  0  0  0  0  0
   -0.7615   -1.1345    0.0000 H   0  0  0  0  0  0  0  0  0  0  0  0
   -1.0315   -2.4479    0.0000 H   0  0  0  0  0  0  0  0  0  0  0  0
   -1.8426   -1.6782    0.0000 H   0  0  0  0  0  0  0  0  0  0  0  0
   -2.5423   -0.7700    0.0000 H   0  0  0  0  0  0  0  0  0  0  0  0
   -2.0609    0.2393    0.0000 H   0  0  0  0  0  0  0  0  0  0  0  0
   -1.4134    1.1854    0.0000 H   0  0  0  0  0  0  0  0  0  0  0  0
   -0.3048    1.0395    0.0000 H   0  0  0  0  0  0  0  0  0  0  0  0
   -0.7952   -0.7160    0.0000 H   0  0  0  0  0  0  0  0  0  0  0  0
    1.8890   -0.5564    0.0000 H   0  0  0  0  0  0  0  0  0  0  0  0
    7.8381    5.4705    0.0000 H   0  0  0  0  0  0  0  0  0  0  0  0
    7.9247    4.5205    0.0000 H   0  0  0  0  0  0  0  0  0  0  0  0
   10.5575    5.9705    0.0000 H   0  0  0  0  0  0  0  0  0  0  0  0
    9.6308    7.5755    0.0000 H   0  0  0  0  0  0  0  0  0  0  0  0
   10.5575    7.0405    0.0000 H   0  0  0  0  0  0  0  0  0  0  0  0
  1  2  1  0  0  0  0
  1100  1  0  0  0  0
  1101  1  0  0  0  0
  2  3  1  0  0  0  0
  2 97  1  0  0  0  0
  2102  1  0  0  0  0
  3  4  2  0  0  0  0
  3  5  1  0  0  0  0
  5  6  1  0  0  0  0
  5103  1  0  0  0  0
  6  7  1  0  0  0  0
  6 12  1  0  0  0  0
  6104  1  0  0  0  0
  7  8  1  0  0  0  0
  7105  1  0  0  0  0
  7106  1  0  0  0  0
  8  9  1  0  0  0  0
  8107  1  0  0  0  0
  8108  1  0  0  0  0
  9 10  2  0  0  0  0
  9 11  1  0  0  0  0
 11109  1  0  0  0  0
 11110  1  0  0  0  0
 12 13  2  0  0  0  0
 12 14  1  0  0  0  0
 14 15  1  0  0  0  0
 14111  1  0  0  0  0
 15 16  1  0  0  0  0
 15 21  1  0  0  0  0
 15112  1  0  0  0  0
 16 17  1  0  0  0  0
 16113  1  0  0  0  0
 16114  1  0  0  0  0
 17 18  1  0  0  0  0
 17115  1  0  0  0  0
 17116  1  0  0  0  0
 18 19  2  0  0  0  0
 18 20  1  0  0  0  0
 20117  1  0  0  0  0
 20118  1  0  0  0  0
 21 22  2  0  0  0  0
 21 23  1  0  0  0  0
 23 24  1  0  0  0  0
 23119  1  0  0  0  0
 24 25  1  0  0  0  0
 24 26  1  0  0  0  0
 24120  1  0  0  0  0
 25121  1  0  0  0  0
 25122  1  0  0  0  0
 25123  1  0  0  0  0
 26 27  2  0  0  0  0
 26 28  1  0  0  0  0
 28 29  1  0  0  0  0
 28124  1  0  0  0  0
 29 30  1  0  0  0  0
 29 32  1  0  0  0  0
 29125  1  0  0  0  0
 30 31  1  0  0  0  0
 30126  1  0  0  0  0
 30127  1  0  0  0  0
 31128  1  0  0  0  0
 32 33  2  0  0  0  0
 32 34  1  0  0  0  0
 34 35  1  0  0  0  0
 34129  1  0  0  0  0
 35 36  1  0  0  0  0
 35 42  1  0  0  0  0
 35130  1  0  0  0  0
 36 37  1  0  0  0  0
 36131  1  0  0  0  0
 36132  1  0  0  0  0
 37 41  1  0  0  0  0
 37 38  2  0  0  0  0
 38 39  1  0  0  0  0
 38133  1  0  0  0  0
 39 40  2  0  0  0  0
 40 41  1  0  0  0  0
 40134  1  0  0  0  0
 41135  1  0  0  0  0
 42 43  2  0  0  0  0
 42 44  1  0  0  0  0
 44 45  1  0  0  0  0
 44136  1  0  0  0  0
 45 46  1  0  0  0  0
 45 53  1  0  0  0  0
 45137  1  0  0  0  0
 46 52  2  0  0  0  0
 46 47  1  0  0  0  0
 47 48  2  0  0  0  0
 47138  1  0  0  0  0
 48 49  1  0  0  0  0
 48139  1  0  0  0  0
 49 50  1  0  0  0  0
 49 51  2  0  0  0  0
 50140  1  0  0  0  0
 51 52  1  0  0  0  0
 51141  1  0  0  0  0
 52142  1  0  0  0  0
 53 54  2  0  0  0  0
 53 55  1  0  0  0  0
 55 56  1  0  0  0  0
 55143  1  0  0  0  0
 56 57  1  0  0  0  0
 56 62  1  0  0  0  0
 56144  1  0  0  0  0
 57 58  1  0  0  0  0
 57145  1  0  0  0  0
 57146  1  0  0  0  0
 58 59  1  0  0  0  0
 58147  1  0  0  0  0
 58148  1  0  0  0  0
 59 60  1  0  0  0  0
 59149  1  0  0  0  0
 59150  1  0  0  0  0
 60 61  1  0  0  0  0
 60151  1  0  0  0  0
 60152  1  0  0  0  0
 61153  1  0  0  0  0
 61154  1  0  0  0  0
 62 63  2  0  0  0  0
 62 64  1  0  0  0  0
 64 65  1  0  0  0  0
 64155  1  0  0  0  0
 65 66  1  0  0  0  0
 65 71  1  0  0  0  0
 65156  1  0  0  0  0
 66 67  1  0  0  0  0
 66157  1  0  0  0  0
 66158  1  0  0  0  0
 67 68  1  0  0  0  0
 67159  1  0  0  0  0
 67160  1  0  0  0  0
 68 69  2  0  0  0  0
 68 70  1  0  0  0  0
 70161  1  0  0  0  0
 70162  1  0  0  0  0
 71 72  2  0  0  0  0
 71 73  1  0  0  0  0
 73 74  1  0  0  0  0
 73163  1  0  0  0  0
 74 75  1  0  0  0  0
 74 81  1  0  0  0  0
 74164  1  0  0  0  0
 75 76  1  0  0  0  0
 75165  1  0  0  0  0
 75166  1  0  0  0  0
 76 80  1  0  0  0  0
 76 77  2  0  0  0  0
 77 78  1  0  0  0  0
 77167  1  0  0  0  0
 78 79  2  0  0  0  0
 79 80  1  0  0  0  0
 79168  1  0  0  0  0
 80169  1  0  0  0  0
 81 82  2  0  0  0  0
 81 83  1  0  0  0  0
 83 84  1  0  0  0  0
 83170  1  0  0  0  0
 84 85  1  0  0  0  0
 84 87  1  0  0  0  0
 84171  1  0  0  0  0
 85 86  1  0  0  0  0
 85172  1  0  0  0  0
 85173  1  0  0  0  0
 86174  1  0  0  0  0
 87 88  2  0  0  0  0
 87 89  1  0  0  0  0
 89 93  1  0  0  0  0
 89 90  1  0  0  0  0
 90 91  1  0  0  0  0
 90175  1  0  0  0  0
 90176  1  0  0  0  0
 91 92  1  0  0  0  0
 91177  1  0  0  0  0
 91178  1  0  0  0  0
 92 93  1  0  0  0  0
 92179  1  0  0  0  0
 92180  1  0  0  0  0
 93 94  1  0  0  0  0
 93181  1  0  0  0  0
 94 95  1  0  0  0  0
 94 96  2  0  0  0  0
 95182  1  0  0  0  0
 97 98  1  0  0  0  0
 97 99  1  0  0  0  0
 97183  1  0  0  0  0
 98184  1  0  0  0  0
 99185  1  0  0  0  0
 99186  1  0  0  0  0
 99187  1  0  0  0  0
M  END
$$$$
