


126129  0  0  0  0  0  0  0  0999 V2000
  -20.8691  -13.0891    8.0031 C   0  0  0  0  0  0  0  0  0  0  0  0
  -21.9970  -12.8919    8.9894 C   0  0  0  0  0  0  0  0  0  0  0  0
  -23.2557  -13.4824    8.7767 C   0  0  0  0  0  0  0  0  0  0  0  0
  -24.2748  -13.3332    9.7203 C   0  0  0  0  0  0  0  0  0  0  0  0
  -24.0585  -12.5763   10.8788 C   0  0  0  0  0  0  0  0  0  0  0  0
  -25.0812  -12.4356   11.8161 O   0  0  0  0  0  0  0  0  0  0  0  0
  -22.8137  -11.9716   11.0904 C   0  0  0  0  0  0  0  0  0  0  0  0
  -21.7873  -12.1374   10.1547 C   0  0  0  0  0  0  0  0  0  0  0  0
  -24.9628  -11.8567   12.6393 H   0  0  0  0  0  0  0  0  0  0  0  0
  -19.7202  -13.8207    8.6465 C   0  0  0  0  0  0  0  0  0  0  0  0
  -19.9341  -14.7505    9.4681 O   0  0  0  0  0  0  0  0  0  0  0  0
  -18.3722  -13.4277    8.3547 N   0  0  0  0  0  0  0  0  0  0  0  0
  -18.1500  -13.2158    7.3546 H   0  0  0  0  0  0  0  0  0  0  0  0
  -17.4126  -12.9399    9.3590 C   0  0  0  0  0  0  0  0  0  0  0  0
  -16.6051  -14.1062    9.8776 C   0  0  0  0  0  0  0  0  0  0  0  0
  -16.4906  -14.3046   11.1211 O   0  0  0  0  0  0  0  0  0  0  0  0
  -15.9552  -14.9841    8.9479 N   0  0  0  0  0  0  0  0  0  0  0  0
  -16.2361  -14.9281    7.9421 H   0  0  0  0  0  0  0  0  0  0  0  0
  -14.6886  -15.6503    9.2718 C   0  0  0  0  0  0  0  0  0  0  0  0
  -14.2627  -16.5282    8.1196 C   0  0  0  0  0  0  0  0  0  0  0  0
  -13.2264  -17.2354    8.2298 O   0  0  0  0  0  0  0  0  0  0  0  0
  -15.0686  -16.6088    6.9295 N   0  0  0  0  0  0  0  0  0  0  0  0
  -15.9604  -16.0590    6.9169 H   0  0  0  0  0  0  0  0  0  0  0  0
  -14.8325  -17.6320    5.8973 C   0  0  0  0  0  0  0  0  0  0  0  0
  -15.2185  -17.1413    4.5164 C   0  0  0  0  0  0  0  0  0  0  0  0
  -16.4372  -17.0962    4.1947 O   0  0  0  0  0  0  0  0  0  0  0  0
  -14.2330  -16.8575    3.5047 N   0  0  0  0  0  0  0  0  0  0  0  0
  -14.4742  -17.1622    2.5318 H   0  0  0  0  0  0  0  0  0  0  0  0
  -13.1090  -15.9114    3.6300 C   0  0  0  0  0  0  0  0  0  0  0  0
  -13.5287  -14.6378    4.3288 C   0  0  0  0  0  0  0  0  0  0  0  0
  -13.2412  -14.4616    5.5386 O   0  0  0  0  0  0  0  0  0  0  0  0
  -14.3651  -13.6735    3.6751 N   0  0  0  0  0  0  0  0  0  0  0  0
  -13.8339  -12.5221    2.9666 C   0  0  0  0  0  0  0  0  0  0  0  0
  -14.9983  -11.5525    2.8283 C   0  0  0  0  0  0  0  0  0  0  0  0
  -16.2564  -12.3873    3.0577 C   0  0  0  0  0  0  0  0  0  0  0  0
  -15.8056  -13.5952    3.8809 C   0  0  0  0  0  0  0  0  0  0  0  0
  -16.1348  -13.4135    5.3372 C   0  0  0  0  0  0  0  0  0  0  0  0
  -16.7428  -14.4453    6.0379 O   0  0  0  0  0  0  0  0  0  0  0  0
  -15.8894  -12.3189    5.9119 O   0  0  0  0  0  0  0  0  0  0  0  0
  -16.9862  -14.3378    7.0150 H   0  0  0  0  0  0  0  0  0  0  0  0
  -11.8852  -16.5835    4.2853 C   0  0  0  0  0  0  0  0  0  0  0  0
  -10.5327  -16.8583    3.0914 S   0  0  0  0  0  0  0  0  0  0  0  0
  -10.3956  -15.5086    2.7347 H   0  0  0  0  0  0  0  0  0  0  0  0
  -15.5979  -18.9234    6.2582 C   0  0  0  0  0  0  0  0  0  0  0  0
  -14.7325  -19.9303    6.9713 C   0  0  0  0  0  0  0  0  0  0  0  0
  -13.9168  -20.8710    6.3851 C   0  0  0  0  0  0  0  0  0  0  0  0
  -13.3329  -21.6115    7.3470 N   0  0  0  0  0  0  0  0  0  0  0  0
  -13.8206  -21.1066    8.5005 C   0  0  0  0  0  0  0  0  0  0  0  0
  -14.6730  -20.0840    8.3060 N   0  0  0  0  0  0  0  0  0  0  0  0
  -15.2075  -19.5593    9.0336 H   0  0  0  0  0  0  0  0  0  0  0  0
  -13.5964  -14.5992    9.5627 C   0  0  0  0  0  0  0  0  0  0  0  0
  -13.0837  -14.6710   11.0112 C   0  0  0  0  0  0  0  0  0  0  0  0
  -12.2074  -15.8752   11.2192 C   0  0  0  0  0  0  0  0  0  0  0  0
  -12.3736  -16.6045   12.2331 O   0  0  0  0  0  0  0  0  0  0  0  0
  -11.1794  -16.1937   10.2791 N   0  0  0  0  0  0  0  0  0  0  0  0
  -10.6007  -17.0545   10.4016 H   0  0  0  0  0  0  0  0  0  0  0  0
  -10.9808  -15.5720    9.4649 H   0  0  0  0  0  0  0  0  0  0  0  0
  -18.0758  -12.1231   10.4972 C   0  0  0  0  0  0  0  0  0  0  0  0
  -17.9668  -10.6049   10.2735 C   0  0  0  0  0  0  0  0  0  0  0  0
  -18.8857  -10.0956    9.1484 C   0  0  0  0  0  0  0  0  0  0  0  0
  -18.1674   -9.7537    7.8261 C   0  0  0  0  0  0  0  0  0  0  0  0
  -18.4420  -10.7286    6.7676 N   0  0  0  0  0  0  0  0  0  0  0  0
  -19.4363  -10.6190    6.4560 H   0  0  0  0  0  0  0  0  0  0  0  0
  -18.3302  -11.6900    7.1502 H   0  0  0  0  0  0  0  0  0  0  0  0
  -20.4325  -14.1737    5.7805 C   0  0  0  0  0  0  0  0  0  0  0  0
  -19.6183  -13.3270    5.3249 O   0  0  0  0  0  0  0  0  0  0  0  0
  -21.3476  -13.8009    6.8140 N   0  0  0  0  0  0  0  0  0  0  0  0
  -22.3179  -14.1929    6.7944 H   0  0  0  0  0  0  0  0  0  0  0  0
  -20.3051  -15.6200    5.4006 C   0  0  0  0  0  0  0  0  0  0  0  0
  -18.8434  -16.8921    7.0555 C   0  0  0  0  0  0  0  0  0  0  0  0
  -17.8152  -16.7162    7.7720 O   0  0  0  0  0  0  0  0  0  0  0  0
  -19.0012  -16.0997    5.8662 N   0  0  0  0  0  0  0  0  0  0  0  0
  -18.1513  -15.5977    5.5299 H   0  0  0  0  0  0  0  0  0  0  0  0
  -19.8285  -17.9894    7.3990 C   0  0  0  0  0  0  0  0  0  0  0  0
  -21.7645  -17.3750    8.9135 C   0  0  0  0  0  0  0  0  0  0  0  0
  -22.3361  -16.7435    7.9822 O   0  0  0  0  0  0  0  0  0  0  0  0
  -20.4107  -17.8245    8.7390 N   0  0  0  0  0  0  0  0  0  0  0  0
  -19.8669  -18.0746    9.5929 H   0  0  0  0  0  0  0  0  0  0  0  0
  -22.4925  -17.6830   10.2005 C   0  0  0  0  0  0  0  0  0  0  0  0
  -23.8044  -16.9003   10.2424 C   0  0  0  0  0  0  0  0  0  0  0  0
  -21.5975  -18.2545   12.5239 C   0  0  0  0  0  0  0  0  0  0  0  0
  -22.3531  -19.2609   12.6027 O   0  0  0  0  0  0  0  0  0  0  0  0
  -21.6790  -17.3744   11.3894 N   0  0  0  0  0  0  0  0  0  0  0  0
  -21.0941  -16.5126   11.4227 H   0  0  0  0  0  0  0  0  0  0  0  0
  -20.6089  -17.9807   13.6304 C   0  0  0  0  0  0  0  0  0  0  0  0
  -18.9972  -19.8955   14.0449 C   0  0  0  0  0  0  0  0  0  0  0  0
  -18.1503  -19.9641   14.9790 O   0  0  0  0  0  0  0  0  0  0  0  0
  -20.2451  -19.2375   14.2927 N   0  0  0  0  0  0  0  0  0  0  0  0
  -20.6722  -19.4190   15.2235 H   0  0  0  0  0  0  0  0  0  0  0  0
  -18.7155  -20.6526   12.7576 C   0  0  0  0  0  0  0  0  0  0  0  0
  -17.2269  -19.4441   11.1325 C   0  0  0  0  0  0  0  0  0  0  0  0
  -16.4279  -20.3790   10.8495 O   0  0  0  0  0  0  0  0  0  0  0  0
  -18.5389  -19.7591   11.6106 N   0  0  0  0  0  0  0  0  0  0  0  0
  -19.3615  -19.3740   11.0992 H   0  0  0  0  0  0  0  0  0  0  0  0
  -17.8623  -17.1533   10.5597 N   0  0  0  0  0  0  0  0  0  0  0  0
  -16.7715  -18.0021   11.0578 C   0  0  0  0  0  0  0  0  0  0  0  0
  -17.4821  -16.1917   10.3952 H   0  0  0  0  0  0  0  0  0  0  0  0
  -18.1557  -17.5062    9.6209 H   0  0  0  0  0  0  0  0  0  0  0  0
  -16.2407  -17.4984   12.4183 C   0  0  0  0  0  0  0  0  0  0  0  0
  -17.3339  -17.2876   13.2818 O   0  0  0  0  0  0  0  0  0  0  0  0
  -15.2612  -18.4842   13.0710 C   0  0  0  0  0  0  0  0  0  0  0  0
  -17.0026  -16.7353   14.0351 H   0  0  0  0  0  0  0  0  0  0  0  0
  -19.8013  -21.7048   12.4728 C   0  0  0  0  0  0  0  0  0  0  0  0
  -19.9413  -22.7729   13.5720 C   0  0  0  0  0  0  0  0  0  0  0  0
  -21.3825  -23.0586   13.9114 C   0  0  0  0  0  0  0  0  0  0  0  0
  -21.7502  -24.2023   14.2873 O   0  0  0  0  0  0  0  0  0  0  0  0
  -22.3478  -22.0124   13.8214 N   0  0  0  0  0  0  0  0  0  0  0  0
  -23.3434  -22.1921   14.0711 H   0  0  0  0  0  0  0  0  0  0  0  0
  -22.0600  -21.0428   13.5520 H   0  0  0  0  0  0  0  0  0  0  0  0
  -21.0533  -16.9060   14.6675 C   0  0  0  0  0  0  0  0  0  0  0  0
  -20.2204  -15.6106   14.7638 C   0  0  0  0  0  0  0  0  0  0  0  0
  -20.1213  -14.7737   13.5090 C   0  0  0  0  0  0  0  0  0  0  0  0
  -20.9402  -13.8332   13.3541 O   0  0  0  0  0  0  0  0  0  0  0  0
  -19.1698  -15.0316   12.4710 N   0  0  0  0  0  0  0  0  0  0  0  0
  -18.5860  -15.8927   12.4432 H   0  0  0  0  0  0  0  0  0  0  0  0
  -19.1267  -14.3977   11.6382 H   0  0  0  0  0  0  0  0  0  0  0  0
  -19.1282  -19.3586    7.2755 C   0  0  0  0  0  0  0  0  0  0  0  0
  -18.3371  -19.6212    8.4075 O   0  0  0  0  0  0  0  0  0  0  0  0
  -18.9355  -20.0538    9.0756 H   0  0  0  0  0  0  0  0  0  0  0  0
  -20.4589  -15.8317    3.8832 C   0  0  0  0  0  0  0  0  0  0  0  0
  -20.1790  -17.2622    3.5188 C   0  0  0  0  0  0  0  0  0  0  0  0
  -20.9483  -18.3568    3.8683 C   0  0  0  0  0  0  0  0  0  0  0  0
  -20.3482  -19.4780    3.4179 N   0  0  0  0  0  0  0  0  0  0  0  0
  -19.2272  -19.0347    2.8029 C   0  0  0  0  0  0  0  0  0  0  0  0
  -19.1039  -17.6918    2.8415 N   0  0  0  0  0  0  0  0  0  0  0  0
  -18.3176  -17.1239    2.4584 H   0  0  0  0  0  0  0  0  0  0  0  0
 95 96  1  0  0  0
 96 91  1  0  0  0
 91 92  2  0  0  0
 91 93  1  0  0  0
 93 90  1  0  0  0
 90103  1  0  0  0
103104  1  0  0  0
104105  1  0  0  0
105106  2  0  0  0
105107  1  0  0  0
 90 86  1  0  0  0
 86 87  2  0  0  0
 86 88  1  0  0  0
 88 85  1  0  0  0
 85110  1  0  0  0
110111  1  0  0  0
111112  1  0  0  0
112113  2  0  0  0
112114  1  0  0  0
 85 81  1  0  0  0
 81 82  2  0  0  0
 81 83  1  0  0  0
 83 79  1  0  0  0
 79 80  1  0  0  0
 79 75  1  0  0  0
 75 76  2  0  0  0
 75 77  1  0  0  0
 77 74  1  0  0  0
 74117  1  0  0  0
117118  1  0  0  0
 74 70  1  0  0  0
 70 71  2  0  0  0
 70 72  1  0  0  0
 72 69  1  0  0  0
 69120  1  0  0  0
120121  1  0  0  0
121122  2  0  0  0
122123  1  0  0  0
123124  2  0  0  0
124125  1  0  0  0
 69 65  1  0  0  0
 65 66  2  0  0  0
 65 67  1  0  0  0
 67  1  1  0  0  0
  1  2  1  0  0  0
  2  3  2  0  0  0
  3  4  1  0  0  0
  4  5  2  0  0  0
  5  6  1  0  0  0
  5  7  1  0  0  0
  7  8  2  0  0  0
  1 10  1  0  0  0
 10 11  2  0  0  0
 10 12  1  0  0  0
 12 14  1  0  0  0
 14 58  1  0  0  0
 58 59  1  0  0  0
 59 60  1  0  0  0
 60 61  1  0  0  0
 61 62  1  0  0  0
 14 15  1  0  0  0
 15 16  2  0  0  0
 15 17  1  0  0  0
 17 19  1  0  0  0
 19 51  1  0  0  0
 51 52  1  0  0  0
 52 53  1  0  0  0
 53 54  2  0  0  0
 53 55  1  0  0  0
 19 20  1  0  0  0
 20 21  2  0  0  0
 20 22  1  0  0  0
 22 24  1  0  0  0
 24 44  1  0  0  0
 44 45  1  0  0  0
 45 46  2  0  0  0
 46 47  1  0  0  0
 47 48  2  0  0  0
 48 49  1  0  0  0
 24 25  1  0  0  0
 25 26  2  0  0  0
 25 27  1  0  0  0
 27 29  1  0  0  0
 29 41  1  0  0  0
 41 42  1  0  0  0
 29 30  1  0  0  0
 30 31  2  0  0  0
 30 32  1  0  0  0
 32 33  1  0  0  0
 33 34  1  0  0  0
 34 35  1  0  0  0
 35 36  1  0  0  0
 36 37  1  0  0  0
 37 38  1  0  0  0
 37 39  2  0  0  0
 96 99  1  0  0  0
 99100  1  0  0  0
 99101  1  0  0  0
125121  1  0  0  0
  8  2  1  0  0  0
 49 45  1  0  0  0
 36 32  1  0  0  0
 95 97  1  0  0  0
 95 98  1  0  0  0
 93 94  1  0  0  0
107108  1  0  0  0
107109  1  0  0  0
 88 89  1  0  0  0
114115  1  0  0  0
114116  1  0  0  0
 83 84  1  0  0  0
 77 78  1  0  0  0
118119  1  0  0  0
 72 73  1  0  0  0
125126  1  0  0  0
 67 68  1  0  0  0
  6  9  1  0  0  0
 12 13  1  0  0  0
 62 63  1  0  0  0
 62 64  1  0  0  0
 17 18  1  0  0  0
 55 56  1  0  0  0
 55 57  1  0  0  0
 22 23  1  0  0  0
 49 50  1  0  0  0
 27 28  1  0  0  0
 42 43  1  0  0  0
 38 40  1  0  0  0
100102  1  0  0  0
M  END
> <minimizedAffinity>
0.00000

$$$$



126129  0  0  0  0  0  0  0  0999 V2000
  -19.8654  -12.1605    7.4080 C   0  0  0  0  0  0  0  0  0  0  0  0
  -21.1484  -11.8426    8.1405 C   0  0  0  0  0  0  0  0  0  0  0  0
  -21.1588  -10.9505    9.2279 C   0  0  0  0  0  0  0  0  0  0  0  0
  -22.3590  -10.6271    9.8652 C   0  0  0  0  0  0  0  0  0  0  0  0
  -23.5619  -11.2044    9.4394 C   0  0  0  0  0  0  0  0  0  0  0  0
  -24.7551  -10.8730   10.0802 O   0  0  0  0  0  0  0  0  0  0  0  0
  -23.5582  -12.1059    8.3682 C   0  0  0  0  0  0  0  0  0  0  0  0
  -22.3589  -12.4146    7.7178 C   0  0  0  0  0  0  0  0  0  0  0  0
  -25.6306  -11.3114    9.8190 H   0  0  0  0  0  0  0  0  0  0  0  0
  -18.9926  -13.0706    8.2320 C   0  0  0  0  0  0  0  0  0  0  0  0
  -19.4952  -14.0316    8.8719 O   0  0  0  0  0  0  0  0  0  0  0  0
  -17.5842  -12.8160    8.3241 N   0  0  0  0  0  0  0  0  0  0  0  0
  -17.0949  -12.5525    7.4378 H   0  0  0  0  0  0  0  0  0  0  0  0
  -16.8723  -12.5256    9.5796 C   0  0  0  0  0  0  0  0  0  0  0  0
  -16.5636  -13.8255   10.2842 C   0  0  0  0  0  0  0  0  0  0  0  0
  -17.0333  -14.0586   11.4347 O   0  0  0  0  0  0  0  0  0  0  0  0
  -15.7205  -14.7930    9.6435 N   0  0  0  0  0  0  0  0  0  0  0  0
  -15.5240  -14.6733    8.6234 H   0  0  0  0  0  0  0  0  0  0  0  0
  -14.8419  -15.6811   10.4132 C   0  0  0  0  0  0  0  0  0  0  0  0
  -14.0127  -16.5217    9.4724 C   0  0  0  0  0  0  0  0  0  0  0  0
  -13.3009  -17.4514    9.9364 O   0  0  0  0  0  0  0  0  0  0  0  0
  -14.0841  -16.3081    8.0506 N   0  0  0  0  0  0  0  0  0  0  0  0
  -14.7478  -15.5727    7.7096 H   0  0  0  0  0  0  0  0  0  0  0  0
  -13.4980  -17.2581    7.0902 C   0  0  0  0  0  0  0  0  0  0  0  0
  -12.9489  -16.5562    5.8645 C   0  0  0  0  0  0  0  0  0  0  0  0
  -13.6675  -16.4619    4.8323 O   0  0  0  0  0  0  0  0  0  0  0  0
  -11.5795  -16.1158    5.7873 N   0  0  0  0  0  0  0  0  0  0  0  0
  -11.1019  -16.2635    4.8665 H   0  0  0  0  0  0  0  0  0  0  0  0
  -10.9084  -15.2004    6.7284 C   0  0  0  0  0  0  0  0  0  0  0  0
  -11.7750  -14.0052    7.0559 C   0  0  0  0  0  0  0  0  0  0  0  0
  -12.3276  -13.9198    8.1805 O   0  0  0  0  0  0  0  0  0  0  0  0
  -12.0883  -13.0208    6.0612 N   0  0  0  0  0  0  0  0  0  0  0  0
  -11.3246  -11.7961    5.8975 C   0  0  0  0  0  0  0  0  0  0  0  0
  -12.2163  -10.8610    5.0939 C   0  0  0  0  0  0  0  0  0  0  0  0
  -13.2663  -11.7569    4.4402 C   0  0  0  0  0  0  0  0  0  0  0  0
  -13.3380  -13.0119    5.3118 C   0  0  0  0  0  0  0  0  0  0  0  0
  -14.5231  -12.9638    6.2369 C   0  0  0  0  0  0  0  0  0  0  0  0
  -15.1674  -14.1410    6.5894 O   0  0  0  0  0  0  0  0  0  0  0  0
  -14.9497  -11.8579    6.6653 O   0  0  0  0  0  0  0  0  0  0  0  0
  -15.9761  -14.1289    7.1989 H   0  0  0  0  0  0  0  0  0  0  0  0
  -10.4186  -15.9518    7.9831 C   0  0  0  0  0  0  0  0  0  0  0  0
   -8.8840  -15.2312    8.6584 S   0  0  0  0  0  0  0  0  0  0  0  0
   -9.4174  -13.9495    8.8588 H   0  0  0  0  0  0  0  0  0  0  0  0
  -14.5505  -18.3164    6.6952 C   0  0  0  0  0  0  0  0  0  0  0  0
  -14.4035  -19.5990    7.4729 C   0  0  0  0  0  0  0  0  0  0  0  0
  -13.6489  -20.6927    7.1146 C   0  0  0  0  0  0  0  0  0  0  0  0
  -13.7984  -21.6569    8.0433 N   0  0  0  0  0  0  0  0  0  0  0  0
  -14.6546  -21.1258    8.9424 C   0  0  0  0  0  0  0  0  0  0  0  0
  -15.0401  -19.8766    8.6245 N   0  0  0  0  0  0  0  0  0  0  0  0
  -15.7234  -19.2760    9.1372 H   0  0  0  0  0  0  0  0  0  0  0  0
  -13.9174  -14.8492   11.3274 C   0  0  0  0  0  0  0  0  0  0  0  0
  -13.9612  -15.3203   12.7911 C   0  0  0  0  0  0  0  0  0  0  0  0
  -12.6090  -15.7888   13.2527 C   0  0  0  0  0  0  0  0  0  0  0  0
  -12.1441  -15.3797   14.3500 O   0  0  0  0  0  0  0  0  0  0  0  0
  -11.8416  -16.6886   12.4504 N   0  0  0  0  0  0  0  0  0  0  0  0
  -10.9223  -17.0475   12.7925 H   0  0  0  0  0  0  0  0  0  0  0  0
  -12.1764  -16.9932   11.5102 H   0  0  0  0  0  0  0  0  0  0  0  0
  -17.6187  -11.5181   10.4908 C   0  0  0  0  0  0  0  0  0  0  0  0
  -17.1135  -10.0760   10.3123 C   0  0  0  0  0  0  0  0  0  0  0  0
  -17.8050   -9.3360    9.1530 C   0  0  0  0  0  0  0  0  0  0  0  0
  -16.9116   -9.0762    7.9219 C   0  0  0  0  0  0  0  0  0  0  0  0
  -17.1765  -10.0119    6.8263 N   0  0  0  0  0  0  0  0  0  0  0  0
  -18.1118   -9.7893    6.4097 H   0  0  0  0  0  0  0  0  0  0  0  0
  -17.2169  -10.9803    7.2052 H   0  0  0  0  0  0  0  0  0  0  0  0
  -19.0900  -13.1127    5.2172 C   0  0  0  0  0  0  0  0  0  0  0  0
  -18.1624  -12.2927    4.9839 O   0  0  0  0  0  0  0  0  0  0  0  0
  -20.1568  -12.7529    6.0988 N   0  0  0  0  0  0  0  0  0  0  0  0
  -21.1269  -13.0763    5.8754 H   0  0  0  0  0  0  0  0  0  0  0  0
  -18.9731  -14.5338    4.7495 C   0  0  0  0  0  0  0  0  0  0  0  0
  -17.9659  -16.0892    6.4988 C   0  0  0  0  0  0  0  0  0  0  0  0
  -17.1266  -16.0655    7.4456 O   0  0  0  0  0  0  0  0  0  0  0  0
  -17.8246  -15.1427    5.4257 N   0  0  0  0  0  0  0  0  0  0  0  0
  -16.9074  -14.6505    5.3622 H   0  0  0  0  0  0  0  0  0  0  0  0
  -19.0316  -17.1640    6.4566 C   0  0  0  0  0  0  0  0  0  0  0  0
  -21.3165  -16.4522    7.2881 C   0  0  0  0  0  0  0  0  0  0  0  0
  -21.4918  -15.7163    6.2779 O   0  0  0  0  0  0  0  0  0  0  0  0
  -20.0197  -17.0200    7.5356 N   0  0  0  0  0  0  0  0  0  0  0  0
  -19.8170  -17.3698    8.4969 H   0  0  0  0  0  0  0  0  0  0  0  0
  -22.4577  -16.7610    8.2281 C   0  0  0  0  0  0  0  0  0  0  0  0
  -23.6486  -15.8635    7.8942 C   0  0  0  0  0  0  0  0  0  0  0  0
  -22.5989  -17.4296   10.6896 C   0  0  0  0  0  0  0  0  0  0  0  0
  -23.5310  -18.2436   10.4484 O   0  0  0  0  0  0  0  0  0  0  0  0
  -22.0770  -16.5944    9.6416 N   0  0  0  0  0  0  0  0  0  0  0  0
  -21.3712  -15.8801    9.9201 H   0  0  0  0  0  0  0  0  0  0  0  0
  -22.0371  -17.3380   12.0871 C   0  0  0  0  0  0  0  0  0  0  0  0
  -20.8424  -19.4594   12.8000 C   0  0  0  0  0  0  0  0  0  0  0  0
  -20.3511  -19.6871   13.9407 O   0  0  0  0  0  0  0  0  0  0  0  0
  -22.0319  -18.6668   12.7076 N   0  0  0  0  0  0  0  0  0  0  0  0
  -22.7507  -18.8475   13.4372 H   0  0  0  0  0  0  0  0  0  0  0  0
  -20.2398  -20.1695   11.5991 C   0  0  0  0  0  0  0  0  0  0  0  0
  -18.1549  -19.0447   10.7594 C   0  0  0  0  0  0  0  0  0  0  0  0
  -17.3829  -20.0422   10.7209 O   0  0  0  0  0  0  0  0  0  0  0  0
  -19.5701  -19.2454   10.6811 N   0  0  0  0  0  0  0  0  0  0  0  0
  -20.1025  -18.7538    9.9320 H   0  0  0  0  0  0  0  0  0  0  0  0
  -18.3683  -16.6711   10.2112 N   0  0  0  0  0  0  0  0  0  0  0  0
  -17.5959  -17.6552   10.9815 C   0  0  0  0  0  0  0  0  0  0  0  0
  -17.8832  -15.7457   10.2794 H   0  0  0  0  0  0  0  0  0  0  0  0
  -18.3312  -16.9365    9.2012 H   0  0  0  0  0  0  0  0  0  0  0  0
  -17.5520  -17.2891   12.4817 C   0  0  0  0  0  0  0  0  0  0  0  0
  -18.8648  -17.0340   12.9249 O   0  0  0  0  0  0  0  0  0  0  0  0
  -16.9325  -18.3995   13.3421 C   0  0  0  0  0  0  0  0  0  0  0  0
  -18.7883  -16.5630   13.7935 H   0  0  0  0  0  0  0  0  0  0  0  0
  -21.2899  -21.0155   10.8584 C   0  0  0  0  0  0  0  0  0  0  0  0
  -21.8569  -22.1791   11.6912 C   0  0  0  0  0  0  0  0  0  0  0  0
  -23.3643  -22.2140   11.6727 C   0  0  0  0  0  0  0  0  0  0  0  0
  -23.9995  -23.2084   12.1111 O   0  0  0  0  0  0  0  0  0  0  0  0
  -24.0884  -21.0952   11.1644 N   0  0  0  0  0  0  0  0  0  0  0  0
  -25.1304  -21.0992   11.1634 H   0  0  0  0  0  0  0  0  0  0  0  0
  -23.5846  -20.2396   10.8332 H   0  0  0  0  0  0  0  0  0  0  0  0
  -22.7232  -16.2877   13.0114 C   0  0  0  0  0  0  0  0  0  0  0  0
  -21.9878  -14.9532   13.2545 C   0  0  0  0  0  0  0  0  0  0  0  0
  -21.2729  -14.3475   12.0683 C   0  0  0  0  0  0  0  0  0  0  0  0
  -21.9660  -13.8624   11.1392 O   0  0  0  0  0  0  0  0  0  0  0  0
  -19.8477  -14.3425   11.9343 N   0  0  0  0  0  0  0  0  0  0  0  0
  -19.2205  -14.8803   12.5671 H   0  0  0  0  0  0  0  0  0  0  0  0
  -19.4067  -13.8793   11.1046 H   0  0  0  0  0  0  0  0  0  0  0  0
  -18.3581  -18.5507    6.5179 C   0  0  0  0  0  0  0  0  0  0  0  0
  -17.9290  -18.8426    7.8244 O   0  0  0  0  0  0  0  0  0  0  0  0
  -18.7033  -19.2634    8.2880 H   0  0  0  0  0  0  0  0  0  0  0  0
  -18.8222  -14.6252    3.2198 C   0  0  0  0  0  0  0  0  0  0  0  0
  -17.3740  -14.7484    2.8387 C   0  0  0  0  0  0  0  0  0  0  0  0
  -16.7464  -15.8937    2.3844 C   0  0  0  0  0  0  0  0  0  0  0  0
  -15.4342  -15.6352    2.2069 N   0  0  0  0  0  0  0  0  0  0  0  0
  -15.2979  -14.3352    2.5573 C   0  0  0  0  0  0  0  0  0  0  0  0
  -16.4623  -13.7694    2.9368 N   0  0  0  0  0  0  0  0  0  0  0  0
  -16.6040  -12.7916    3.2704 H   0  0  0  0  0  0  0  0  0  0  0  0
 95 96  1  0  0  0
 96 91  1  0  0  0
 91 92  2  0  0  0
 91 93  1  0  0  0
 93 90  1  0  0  0
 90103  1  0  0  0
103104  1  0  0  0
104105  1  0  0  0
105106  2  0  0  0
105107  1  0  0  0
 90 86  1  0  0  0
 86 87  2  0  0  0
 86 88  1  0  0  0
 88 85  1  0  0  0
 85110  1  0  0  0
110111  1  0  0  0
111112  1  0  0  0
112113  2  0  0  0
112114  1  0  0  0
 85 81  1  0  0  0
 81 82  2  0  0  0
 81 83  1  0  0  0
 83 79  1  0  0  0
 79 80  1  0  0  0
 79 75  1  0  0  0
 75 76  2  0  0  0
 75 77  1  0  0  0
 77 74  1  0  0  0
 74117  1  0  0  0
117118  1  0  0  0
 74 70  1  0  0  0
 70 71  2  0  0  0
 70 72  1  0  0  0
 72 69  1  0  0  0
 69120  1  0  0  0
120121  1  0  0  0
121122  2  0  0  0
122123  1  0  0  0
123124  2  0  0  0
124125  1  0  0  0
 69 65  1  0  0  0
 65 66  2  0  0  0
 65 67  1  0  0  0
 67  1  1  0  0  0
  1  2  1  0  0  0
  2  3  2  0  0  0
  3  4  1  0  0  0
  4  5  2  0  0  0
  5  6  1  0  0  0
  5  7  1  0  0  0
  7  8  2  0  0  0
  1 10  1  0  0  0
 10 11  2  0  0  0
 10 12  1  0  0  0
 12 14  1  0  0  0
 14 58  1  0  0  0
 58 59  1  0  0  0
 59 60  1  0  0  0
 60 61  1  0  0  0
 61 62  1  0  0  0
 14 15  1  0  0  0
 15 16  2  0  0  0
 15 17  1  0  0  0
 17 19  1  0  0  0
 19 51  1  0  0  0
 51 52  1  0  0  0
 52 53  1  0  0  0
 53 54  2  0  0  0
 53 55  1  0  0  0
 19 20  1  0  0  0
 20 21  2  0  0  0
 20 22  1  0  0  0
 22 24  1  0  0  0
 24 44  1  0  0  0
 44 45  1  0  0  0
 45 46  2  0  0  0
 46 47  1  0  0  0
 47 48  2  0  0  0
 48 49  1  0  0  0
 24 25  1  0  0  0
 25 26  2  0  0  0
 25 27  1  0  0  0
 27 29  1  0  0  0
 29 41  1  0  0  0
 41 42  1  0  0  0
 29 30  1  0  0  0
 30 31  2  0  0  0
 30 32  1  0  0  0
 32 33  1  0  0  0
 33 34  1  0  0  0
 34 35  1  0  0  0
 35 36  1  0  0  0
 36 37  1  0  0  0
 37 38  1  0  0  0
 37 39  2  0  0  0
 96 99  1  0  0  0
 99100  1  0  0  0
 99101  1  0  0  0
125121  1  0  0  0
  8  2  1  0  0  0
 49 45  1  0  0  0
 36 32  1  0  0  0
 95 97  1  0  0  0
 95 98  1  0  0  0
 93 94  1  0  0  0
107108  1  0  0  0
107109  1  0  0  0
 88 89  1  0  0  0
114115  1  0  0  0
114116  1  0  0  0
 83 84  1  0  0  0
 77 78  1  0  0  0
118119  1  0  0  0
 72 73  1  0  0  0
125126  1  0  0  0
 67 68  1  0  0  0
  6  9  1  0  0  0
 12 13  1  0  0  0
 62 63  1  0  0  0
 62 64  1  0  0  0
 17 18  1  0  0  0
 55 56  1  0  0  0
 55 57  1  0  0  0
 22 23  1  0  0  0
 49 50  1  0  0  0
 27 28  1  0  0  0
 42 43  1  0  0  0
 38 40  1  0  0  0
100102  1  0  0  0
M  END
> <minimizedAffinity>
0.01540

$$$$



126129  0  0  0  0  0  0  0  0999 V2000
  -10.6852    6.1818  -15.5236 C   0  0  0  0  0  0  0  0  0  0  0  0
  -10.0452    5.6880  -14.2468 C   0  0  0  0  0  0  0  0  0  0  0  0
   -8.6688    5.4043  -14.1900 C   0  0  0  0  0  0  0  0  0  0  0  0
   -8.0803    4.9958  -12.9908 C   0  0  0  0  0  0  0  0  0  0  0  0
   -8.8603    4.8454  -11.8374 C   0  0  0  0  0  0  0  0  0  0  0  0
   -8.2631    4.4399  -10.6445 O   0  0  0  0  0  0  0  0  0  0  0  0
  -10.2341    5.1100  -11.8891 C   0  0  0  0  0  0  0  0  0  0  0  0
  -10.8195    5.5378  -13.0853 C   0  0  0  0  0  0  0  0  0  0  0  0
   -8.8141    4.2813   -9.8089 H   0  0  0  0  0  0  0  0  0  0  0  0
  -10.7146    5.0906  -16.5617 C   0  0  0  0  0  0  0  0  0  0  0  0
  -10.9829    3.9045  -16.2352 O   0  0  0  0  0  0  0  0  0  0  0  0
  -10.3925    5.3957  -17.9255 N   0  0  0  0  0  0  0  0  0  0  0  0
  -10.7955    6.2777  -18.3181 H   0  0  0  0  0  0  0  0  0  0  0  0
   -9.2715    4.7973  -18.6689 C   0  0  0  0  0  0  0  0  0  0  0  0
   -9.7258    3.4940  -19.2825 C   0  0  0  0  0  0  0  0  0  0  0  0
   -9.1350    2.4122  -19.0010 O   0  0  0  0  0  0  0  0  0  0  0  0
  -10.8279    3.4921  -20.2006 N   0  0  0  0  0  0  0  0  0  0  0  0
  -11.4259    4.3485  -20.2506 H   0  0  0  0  0  0  0  0  0  0  0  0
  -10.9092    2.5313  -21.3066 C   0  0  0  0  0  0  0  0  0  0  0  0
  -12.1537    2.7921  -22.1207 C   0  0  0  0  0  0  0  0  0  0  0  0
  -12.4255    2.0412  -23.0946 O   0  0  0  0  0  0  0  0  0  0  0  0
  -13.0586    3.8481  -21.7488 N   0  0  0  0  0  0  0  0  0  0  0  0
  -12.8264    4.3963  -20.8867 H   0  0  0  0  0  0  0  0  0  0  0  0
  -14.3963    3.9752  -22.3510 C   0  0  0  0  0  0  0  0  0  0  0  0
  -14.8154    5.4242  -22.4962 C   0  0  0  0  0  0  0  0  0  0  0  0
  -15.4051    5.9960  -21.5391 O   0  0  0  0  0  0  0  0  0  0  0  0
  -14.6909    6.1328  -23.7442 N   0  0  0  0  0  0  0  0  0  0  0  0
  -15.4878    6.7655  -23.9934 H   0  0  0  0  0  0  0  0  0  0  0  0
  -13.4488    6.3162  -24.5172 C   0  0  0  0  0  0  0  0  0  0  0  0
  -12.2933    6.7158  -23.6274 C   0  0  0  0  0  0  0  0  0  0  0  0
  -11.4123    5.8729  -23.3261 O   0  0  0  0  0  0  0  0  0  0  0  0
  -12.2452    8.0090  -23.0093 N   0  0  0  0  0  0  0  0  0  0  0  0
  -11.5373    9.1350  -23.5933 C   0  0  0  0  0  0  0  0  0  0  0  0
  -11.3469   10.1322  -22.4598 C   0  0  0  0  0  0  0  0  0  0  0  0
  -12.3586    9.7326  -21.3879 C   0  0  0  0  0  0  0  0  0  0  0  0
  -12.6556    8.2521  -21.6324 C   0  0  0  0  0  0  0  0  0  0  0  0
  -11.8886    7.3793  -20.6773 C   0  0  0  0  0  0  0  0  0  0  0  0
  -12.4155    6.1551  -20.2912 O   0  0  0  0  0  0  0  0  0  0  0  0
  -10.7877    7.7702  -20.2042 O   0  0  0  0  0  0  0  0  0  0  0  0
  -11.9221    5.5593  -19.6376 H   0  0  0  0  0  0  0  0  0  0  0  0
  -13.1427    5.0767  -25.3826 C   0  0  0  0  0  0  0  0  0  0  0  0
  -12.2614    5.5142  -26.9196 S   0  0  0  0  0  0  0  0  0  0  0  0
  -11.1713    6.1206  -26.2783 H   0  0  0  0  0  0  0  0  0  0  0  0
  -15.4233    3.1849  -21.5115 C   0  0  0  0  0  0  0  0  0  0  0  0
  -15.7689    1.8515  -22.1230 C   0  0  0  0  0  0  0  0  0  0  0  0
  -16.4704    0.8314  -21.5219 C   0  0  0  0  0  0  0  0  0  0  0  0
  -16.5461   -0.2129  -22.3694 N   0  0  0  0  0  0  0  0  0  0  0  0
  -15.8745    0.1972  -23.4667 C   0  0  0  0  0  0  0  0  0  0  0  0
  -15.3906    1.4470  -23.3485 N   0  0  0  0  0  0  0  0  0  0  0  0
  -14.8068    1.9671  -24.0406 H   0  0  0  0  0  0  0  0  0  0  0  0
   -9.6597    2.6505  -22.2049 C   0  0  0  0  0  0  0  0  0  0  0  0
   -8.9477    1.3013  -22.4019 C   0  0  0  0  0  0  0  0  0  0  0  0
   -7.5364    1.3501  -21.8852 C   0  0  0  0  0  0  0  0  0  0  0  0
   -6.8266    0.3092  -21.8996 O   0  0  0  0  0  0  0  0  0  0  0  0
   -6.9964    2.5680  -21.3681 N   0  0  0  0  0  0  0  0  0  0  0  0
   -6.0024    2.6113  -21.0504 H   0  0  0  0  0  0  0  0  0  0  0  0
   -7.5827    3.4274  -21.2878 H   0  0  0  0  0  0  0  0  0  0  0  0
   -7.9855    4.6376  -17.8185 C   0  0  0  0  0  0  0  0  0  0  0  0
   -6.9832    5.7824  -18.0454 C   0  0  0  0  0  0  0  0  0  0  0  0
   -7.3077    7.0385  -17.2168 C   0  0  0  0  0  0  0  0  0  0  0  0
   -7.8763    8.2230  -18.0261 C   0  0  0  0  0  0  0  0  0  0  0  0
   -9.3127    8.4139  -17.8113 N   0  0  0  0  0  0  0  0  0  0  0  0
   -9.4643    8.7803  -16.8414 H   0  0  0  0  0  0  0  0  0  0  0  0
   -9.7953    7.4948  -17.8856 H   0  0  0  0  0  0  0  0  0  0  0  0
  -12.8421    7.1869  -16.3268 C   0  0  0  0  0  0  0  0  0  0  0  0
  -12.3604    8.0092  -17.1510 O   0  0  0  0  0  0  0  0  0  0  0  0
  -12.0338    6.6915  -15.2564 N   0  0  0  0  0  0  0  0  0  0  0  0
  -12.4760    6.5349  -14.3208 H   0  0  0  0  0  0  0  0  0  0  0  0
  -14.1822    6.5622  -16.5833 C   0  0  0  0  0  0  0  0  0  0  0  0
  -13.9535    4.4090  -17.9270 C   0  0  0  0  0  0  0  0  0  0  0  0
  -13.2509    3.9207  -18.8593 O   0  0  0  0  0  0  0  0  0  0  0  0
  -14.1104    5.8364  -17.8542 N   0  0  0  0  0  0  0  0  0  0  0  0
  -13.8395    6.3744  -18.7055 H   0  0  0  0  0  0  0  0  0  0  0  0
  -14.6929    3.4928  -16.9749 C   0  0  0  0  0  0  0  0  0  0  0  0
  -13.6924    3.1035  -14.6800 C   0  0  0  0  0  0  0  0  0  0  0  0
  -14.0600    4.2460  -14.2893 O   0  0  0  0  0  0  0  0  0  0  0  0
  -13.7861    2.7665  -16.0739 N   0  0  0  0  0  0  0  0  0  0  0  0
  -13.2236    1.9588  -16.4183 H   0  0  0  0  0  0  0  0  0  0  0  0
  -13.1757    2.0789  -13.6980 C   0  0  0  0  0  0  0  0  0  0  0  0
  -13.0738    2.7107  -12.3103 C   0  0  0  0  0  0  0  0  0  0  0  0
  -11.6746    0.1336  -14.3971 C   0  0  0  0  0  0  0  0  0  0  0  0
  -12.5924   -0.6997  -14.1665 O   0  0  0  0  0  0  0  0  0  0  0  0
  -11.8706    1.5275  -14.1020 N   0  0  0  0  0  0  0  0  0  0  0  0
  -11.0471    2.1531  -14.2295 H   0  0  0  0  0  0  0  0  0  0  0  0
  -10.3690   -0.3442  -14.9834 C   0  0  0  0  0  0  0  0  0  0  0  0
  -11.3894    0.0471  -17.2728 C   0  0  0  0  0  0  0  0  0  0  0  0
  -11.8627    1.1378  -17.6980 O   0  0  0  0  0  0  0  0  0  0  0  0
  -10.2678    0.0829  -16.3826 N   0  0  0  0  0  0  0  0  0  0  0  0
   -9.5380    0.7893  -16.6067 H   0  0  0  0  0  0  0  0  0  0  0  0
  -11.9305   -1.2496  -17.8518 C   0  0  0  0  0  0  0  0  0  0  0  0
  -14.2318   -2.1130  -17.3266 C   0  0  0  0  0  0  0  0  0  0  0  0
  -14.4964   -2.6770  -18.4240 O   0  0  0  0  0  0  0  0  0  0  0  0
  -12.8656   -1.9195  -16.9452 N   0  0  0  0  0  0  0  0  0  0  0  0
  -12.5445   -2.3026  -16.0306 H   0  0  0  0  0  0  0  0  0  0  0  0
  -14.9278   -0.2949  -15.8468 N   0  0  0  0  0  0  0  0  0  0  0  0
  -15.3468   -1.5605  -16.4641 C   0  0  0  0  0  0  0  0  0  0  0  0
  -15.6622   -0.0053  -15.1589 H   0  0  0  0  0  0  0  0  0  0  0  0
  -14.0653   -0.4697  -15.2833 H   0  0  0  0  0  0  0  0  0  0  0  0
  -16.6582   -1.3917  -17.2632 C   0  0  0  0  0  0  0  0  0  0  0  0
  -17.2688   -2.6536  -17.4044 O   0  0  0  0  0  0  0  0  0  0  0  0
  -17.6408   -0.4252  -16.5870 C   0  0  0  0  0  0  0  0  0  0  0  0
  -17.9498   -2.5648  -18.1190 H   0  0  0  0  0  0  0  0  0  0  0  0
  -10.7938   -2.1990  -18.2687 C   0  0  0  0  0  0  0  0  0  0  0  0
  -10.3063   -1.9946  -19.7143 C   0  0  0  0  0  0  0  0  0  0  0  0
   -8.8236   -1.7296  -19.7856 C   0  0  0  0  0  0  0  0  0  0  0  0
   -8.0513   -2.5043  -20.4083 O   0  0  0  0  0  0  0  0  0  0  0  0
   -8.2838   -0.5723  -19.1502 N   0  0  0  0  0  0  0  0  0  0  0  0
   -7.2636   -0.3679  -19.2079 H   0  0  0  0  0  0  0  0  0  0  0  0
   -8.9103    0.1094  -18.6621 H   0  0  0  0  0  0  0  0  0  0  0  0
  -10.0958   -1.8717  -14.8399 C   0  0  0  0  0  0  0  0  0  0  0  0
   -8.6986   -2.3105  -14.3537 C   0  0  0  0  0  0  0  0  0  0  0  0
   -7.5263   -1.9309  -15.2291 C   0  0  0  0  0  0  0  0  0  0  0  0
   -7.7083   -1.8594  -16.4705 O   0  0  0  0  0  0  0  0  0  0  0  0
   -6.2114   -1.6947  -14.7148 N   0  0  0  0  0  0  0  0  0  0  0  0
   -5.9438   -1.9098  -13.7324 H   0  0  0  0  0  0  0  0  0  0  0  0
   -5.4447   -1.4030  -15.3662 H   0  0  0  0  0  0  0  0  0  0  0  0
  -15.5574    2.5061  -17.7870 C   0  0  0  0  0  0  0  0  0  0  0  0
  -14.7724    1.4628  -18.3080 O   0  0  0  0  0  0  0  0  0  0  0  0
  -14.7353    0.7593  -17.6043 H   0  0  0  0  0  0  0  0  0  0  0  0
  -15.3095    7.6107  -16.6121 C   0  0  0  0  0  0  0  0  0  0  0  0
  -16.6457    6.9448  -16.7818 C   0  0  0  0  0  0  0  0  0  0  0  0
  -17.2169    6.0331  -15.9132 C   0  0  0  0  0  0  0  0  0  0  0  0
  -18.3879    5.6071  -16.4303 N   0  0  0  0  0  0  0  0  0  0  0  0
  -18.4994    6.2740  -17.6026 C   0  0  0  0  0  0  0  0  0  0  0  0
  -17.4590    7.1003  -17.8369 N   0  0  0  0  0  0  0  0  0  0  0  0
  -17.3106    7.6970  -18.6792 H   0  0  0  0  0  0  0  0  0  0  0  0
 95 96  1  0  0  0
 96 91  1  0  0  0
 91 92  2  0  0  0
 91 93  1  0  0  0
 93 90  1  0  0  0
 90103  1  0  0  0
103104  1  0  0  0
104105  1  0  0  0
105106  2  0  0  0
105107  1  0  0  0
 90 86  1  0  0  0
 86 87  2  0  0  0
 86 88  1  0  0  0
 88 85  1  0  0  0
 85110  1  0  0  0
110111  1  0  0  0
111112  1  0  0  0
112113  2  0  0  0
112114  1  0  0  0
 85 81  1  0  0  0
 81 82  2  0  0  0
 81 83  1  0  0  0
 83 79  1  0  0  0
 79 80  1  0  0  0
 79 75  1  0  0  0
 75 76  2  0  0  0
 75 77  1  0  0  0
 77 74  1  0  0  0
 74117  1  0  0  0
117118  1  0  0  0
 74 70  1  0  0  0
 70 71  2  0  0  0
 70 72  1  0  0  0
 72 69  1  0  0  0
 69120  1  0  0  0
120121  1  0  0  0
121122  2  0  0  0
122123  1  0  0  0
123124  2  0  0  0
124125  1  0  0  0
 69 65  1  0  0  0
 65 66  2  0  0  0
 65 67  1  0  0  0
 67  1  1  0  0  0
  1  2  1  0  0  0
  2  3  2  0  0  0
  3  4  1  0  0  0
  4  5  2  0  0  0
  5  6  1  0  0  0
  5  7  1  0  0  0
  7  8  2  0  0  0
  1 10  1  0  0  0
 10 11  2  0  0  0
 10 12  1  0  0  0
 12 14  1  0  0  0
 14 58  1  0  0  0
 58 59  1  0  0  0
 59 60  1  0  0  0
 60 61  1  0  0  0
 61 62  1  0  0  0
 14 15  1  0  0  0
 15 16  2  0  0  0
 15 17  1  0  0  0
 17 19  1  0  0  0
 19 51  1  0  0  0
 51 52  1  0  0  0
 52 53  1  0  0  0
 53 54  2  0  0  0
 53 55  1  0  0  0
 19 20  1  0  0  0
 20 21  2  0  0  0
 20 22  1  0  0  0
 22 24  1  0  0  0
 24 44  1  0  0  0
 44 45  1  0  0  0
 45 46  2  0  0  0
 46 47  1  0  0  0
 47 48  2  0  0  0
 48 49  1  0  0  0
 24 25  1  0  0  0
 25 26  2  0  0  0
 25 27  1  0  0  0
 27 29  1  0  0  0
 29 41  1  0  0  0
 41 42  1  0  0  0
 29 30  1  0  0  0
 30 31  2  0  0  0
 30 32  1  0  0  0
 32 33  1  0  0  0
 33 34  1  0  0  0
 34 35  1  0  0  0
 35 36  1  0  0  0
 36 37  1  0  0  0
 37 38  1  0  0  0
 37 39  2  0  0  0
 96 99  1  0  0  0
 99100  1  0  0  0
 99101  1  0  0  0
125121  1  0  0  0
  8  2  1  0  0  0
 49 45  1  0  0  0
 36 32  1  0  0  0
 95 97  1  0  0  0
 95 98  1  0  0  0
 93 94  1  0  0  0
107108  1  0  0  0
107109  1  0  0  0
 88 89  1  0  0  0
114115  1  0  0  0
114116  1  0  0  0
 83 84  1  0  0  0
 77 78  1  0  0  0
118119  1  0  0  0
 72 73  1  0  0  0
125126  1  0  0  0
 67 68  1  0  0  0
  6  9  1  0  0  0
 12 13  1  0  0  0
 62 63  1  0  0  0
 62 64  1  0  0  0
 17 18  1  0  0  0
 55 56  1  0  0  0
 55 57  1  0  0  0
 22 23  1  0  0  0
 49 50  1  0  0  0
 27 28  1  0  0  0
 42 43  1  0  0  0
 38 40  1  0  0  0
100102  1  0  0  0
M  END
> <minimizedAffinity>
0.13290

$$$$



126129  0  0  0  0  0  0  0  0999 V2000
  -11.9386    5.3981  -21.6973 C   0  0  0  0  0  0  0  0  0  0  0  0
  -12.7913    4.5243  -22.5878 C   0  0  0  0  0  0  0  0  0  0  0  0
  -13.8776    5.0610  -23.3023 C   0  0  0  0  0  0  0  0  0  0  0  0
  -14.6276    4.2531  -24.1602 C   0  0  0  0  0  0  0  0  0  0  0  0
  -14.3168    2.8948  -24.3016 C   0  0  0  0  0  0  0  0  0  0  0  0
  -15.0697    2.0972  -25.1626 O   0  0  0  0  0  0  0  0  0  0  0  0
  -13.2474    2.3488  -23.5817 C   0  0  0  0  0  0  0  0  0  0  0  0
  -12.4845    3.1625  -22.7376 C   0  0  0  0  0  0  0  0  0  0  0  0
  -14.8920    1.1032  -25.2474 H   0  0  0  0  0  0  0  0  0  0  0  0
  -10.6224    5.7107  -22.3598 C   0  0  0  0  0  0  0  0  0  0  0  0
   -9.5413    5.3061  -21.8566 O   0  0  0  0  0  0  0  0  0  0  0  0
  -10.5957    6.5117  -23.5491 N   0  0  0  0  0  0  0  0  0  0  0  0
  -11.3230    6.3047  -24.2720 H   0  0  0  0  0  0  0  0  0  0  0  0
   -9.9038    7.8060  -23.6643 C   0  0  0  0  0  0  0  0  0  0  0  0
  -10.9296    8.9146  -23.6788 C   0  0  0  0  0  0  0  0  0  0  0  0
  -12.1631    8.6482  -23.6017 O   0  0  0  0  0  0  0  0  0  0  0  0
  -10.4954   10.2768  -23.7939 N   0  0  0  0  0  0  0  0  0  0  0  0
   -9.4815   10.4830  -23.6417 H   0  0  0  0  0  0  0  0  0  0  0  0
  -11.3082   11.2910  -24.4751 C   0  0  0  0  0  0  0  0  0  0  0  0
  -11.1109   12.6338  -23.8139 C   0  0  0  0  0  0  0  0  0  0  0  0
  -11.7292   13.6384  -24.2552 O   0  0  0  0  0  0  0  0  0  0  0  0
  -10.2757   12.7552  -22.6478 N   0  0  0  0  0  0  0  0  0  0  0  0
   -9.8433   11.8767  -22.2749 H   0  0  0  0  0  0  0  0  0  0  0  0
  -10.2566   13.9780  -21.8276 C   0  0  0  0  0  0  0  0  0  0  0  0
   -9.0617   14.0154  -20.8964 C   0  0  0  0  0  0  0  0  0  0  0  0
   -9.2018   13.6537  -19.6963 O   0  0  0  0  0  0  0  0  0  0  0  0
   -7.8005   14.5851  -21.2963 N   0  0  0  0  0  0  0  0  0  0  0  0
   -7.3060   15.1578  -20.5717 H   0  0  0  0  0  0  0  0  0  0  0  0
   -6.9969   14.1794  -22.4642 C   0  0  0  0  0  0  0  0  0  0  0  0
   -6.9308   12.6747  -22.5987 C   0  0  0  0  0  0  0  0  0  0  0  0
   -7.6298   12.0904  -23.4633 O   0  0  0  0  0  0  0  0  0  0  0  0
   -6.1803   11.8789  -21.6712 N   0  0  0  0  0  0  0  0  0  0  0  0
   -4.8104   11.4639  -21.9183 C   0  0  0  0  0  0  0  0  0  0  0  0
   -4.5532   10.3083  -20.9623 C   0  0  0  0  0  0  0  0  0  0  0  0
   -5.6360   10.4141  -19.8906 C   0  0  0  0  0  0  0  0  0  0  0  0
   -6.7850   11.1875  -20.5400 C   0  0  0  0  0  0  0  0  0  0  0  0
   -7.8767   10.2581  -20.9948 C   0  0  0  0  0  0  0  0  0  0  0  0
   -9.1921   10.6993  -21.0102 O   0  0  0  0  0  0  0  0  0  0  0  0
   -7.6040    9.0742  -21.3302 O   0  0  0  0  0  0  0  0  0  0  0  0
   -9.9435   10.0847  -21.2987 H   0  0  0  0  0  0  0  0  0  0  0  0
   -7.4877   14.8785  -23.7484 C   0  0  0  0  0  0  0  0  0  0  0  0
   -7.8293   16.6505  -23.4766 S   0  0  0  0  0  0  0  0  0  0  0  0
   -6.5347   16.9688  -23.0405 H   0  0  0  0  0  0  0  0  0  0  0  0
  -11.5771   14.0959  -21.0363 C   0  0  0  0  0  0  0  0  0  0  0  0
  -12.2321   15.4435  -21.1987 C   0  0  0  0  0  0  0  0  0  0  0  0
  -12.2737   16.4524  -20.2637 C   0  0  0  0  0  0  0  0  0  0  0  0
  -12.9790   17.4871  -20.7603 N   0  0  0  0  0  0  0  0  0  0  0  0
  -13.3604   17.0738  -21.9878 C   0  0  0  0  0  0  0  0  0  0  0  0
  -12.9221   15.8367  -22.2840 N   0  0  0  0  0  0  0  0  0  0  0  0
  -13.1189   15.2865  -23.1494 H   0  0  0  0  0  0  0  0  0  0  0  0
  -10.9112   11.3755  -25.9642 C   0  0  0  0  0  0  0  0  0  0  0  0
  -11.8899   10.6165  -26.8765 C   0  0  0  0  0  0  0  0  0  0  0  0
  -13.3064   10.7576  -26.3917 C   0  0  0  0  0  0  0  0  0  0  0  0
  -13.9968    9.7286  -26.1635 O   0  0  0  0  0  0  0  0  0  0  0  0
  -13.8795   12.0520  -26.1968 N   0  0  0  0  0  0  0  0  0  0  0  0
  -14.8482   12.1486  -25.8183 H   0  0  0  0  0  0  0  0  0  0  0  0
  -13.3503   12.9186  -26.4374 H   0  0  0  0  0  0  0  0  0  0  0  0
   -8.9328    7.8789  -24.8702 C   0  0  0  0  0  0  0  0  0  0  0  0
   -9.2669    6.8447  -25.9590 C   0  0  0  0  0  0  0  0  0  0  0  0
  -10.1984    7.4012  -27.0509 C   0  0  0  0  0  0  0  0  0  0  0  0
  -11.5419    6.6571  -27.2014 C   0  0  0  0  0  0  0  0  0  0  0  0
  -12.4931    6.9915  -26.1387 N   0  0  0  0  0  0  0  0  0  0  0  0
  -12.8252    7.9754  -26.2789 H   0  0  0  0  0  0  0  0  0  0  0  0
  -12.0090    6.9449  -25.2187 H   0  0  0  0  0  0  0  0  0  0  0  0
  -13.3058    6.7454  -20.0778 C   0  0  0  0  0  0  0  0  0  0  0  0
  -14.0577    5.8218  -19.6665 O   0  0  0  0  0  0  0  0  0  0  0  0
  -12.6572    6.6271  -21.3466 N   0  0  0  0  0  0  0  0  0  0  0  0
  -12.5524    7.4819  -21.9414 H   0  0  0  0  0  0  0  0  0  0  0  0
  -12.9176    7.8654  -19.1575 C   0  0  0  0  0  0  0  0  0  0  0  0
  -12.4408   10.2123  -20.0284 C   0  0  0  0  0  0  0  0  0  0  0  0
  -12.2061   10.8102  -21.1188 O   0  0  0  0  0  0  0  0  0  0  0  0
  -12.1051    8.8186  -19.9180 N   0  0  0  0  0  0  0  0  0  0  0  0
  -11.4699    8.4373  -20.6519 H   0  0  0  0  0  0  0  0  0  0  0  0
  -12.9692   10.9848  -18.8382 C   0  0  0  0  0  0  0  0  0  0  0  0
  -15.1573   12.1737  -18.3714 C   0  0  0  0  0  0  0  0  0  0  0  0
  -15.4947   11.2939  -17.5317 O   0  0  0  0  0  0  0  0  0  0  0  0
  -14.0131   11.9504  -19.2118 N   0  0  0  0  0  0  0  0  0  0  0  0
  -13.9226   12.5289  -20.0747 H   0  0  0  0  0  0  0  0  0  0  0  0
  -15.9280   13.4672  -18.4891 C   0  0  0  0  0  0  0  0  0  0  0  0
  -16.6371   13.7587  -17.1671 C   0  0  0  0  0  0  0  0  0  0  0  0
  -16.5498   13.7533  -20.9503 C   0  0  0  0  0  0  0  0  0  0  0  0
  -15.4104   14.2231  -21.2169 O   0  0  0  0  0  0  0  0  0  0  0  0
  -16.9036   13.4371  -19.5927 N   0  0  0  0  0  0  0  0  0  0  0  0
  -17.8871   13.1374  -19.4231 H   0  0  0  0  0  0  0  0  0  0  0  0
  -17.5389   13.5275  -22.0672 C   0  0  0  0  0  0  0  0  0  0  0  0
  -18.8947   15.4737  -22.9671 C   0  0  0  0  0  0  0  0  0  0  0  0
  -19.9575   15.3881  -23.6437 O   0  0  0  0  0  0  0  0  0  0  0  0
  -18.6395   14.4904  -21.9573 N   0  0  0  0  0  0  0  0  0  0  0  0
  -19.4641   14.1993  -21.3942 H   0  0  0  0  0  0  0  0  0  0  0  0
  -18.0201   16.7032  -23.1483 C   0  0  0  0  0  0  0  0  0  0  0  0
  -15.9542   16.5763  -24.5740 C   0  0  0  0  0  0  0  0  0  0  0  0
  -16.0065   17.7148  -25.1157 O   0  0  0  0  0  0  0  0  0  0  0  0
  -16.6056   16.3633  -23.3172 N   0  0  0  0  0  0  0  0  0  0  0  0
  -16.0415   16.0030  -22.5182 H   0  0  0  0  0  0  0  0  0  0  0  0
  -14.8249   14.4226  -24.3171 N   0  0  0  0  0  0  0  0  0  0  0  0
  -15.2894   15.4200  -25.2906 C   0  0  0  0  0  0  0  0  0  0  0  0
  -14.2583   13.7045  -24.8266 H   0  0  0  0  0  0  0  0  0  0  0  0
  -14.1635   14.8874  -23.6549 H   0  0  0  0  0  0  0  0  0  0  0  0
  -16.2241   14.7868  -26.3451 C   0  0  0  0  0  0  0  0  0  0  0  0
  -15.4379   14.2456  -27.3814 O   0  0  0  0  0  0  0  0  0  0  0  0
  -17.1166   13.6849  -25.7567 C   0  0  0  0  0  0  0  0  0  0  0  0
  -16.0452   14.0819  -28.1474 H   0  0  0  0  0  0  0  0  0  0  0  0
  -18.2108   17.7058  -21.9969 C   0  0  0  0  0  0  0  0  0  0  0  0
  -16.9455   17.9356  -21.1512 C   0  0  0  0  0  0  0  0  0  0  0  0
  -16.9186   17.0709  -19.9161 C   0  0  0  0  0  0  0  0  0  0  0  0
  -17.9545   16.4840  -19.5075 O   0  0  0  0  0  0  0  0  0  0  0  0
  -15.6952   16.8994  -19.2032 N   0  0  0  0  0  0  0  0  0  0  0  0
  -15.6590   16.2895  -18.3590 H   0  0  0  0  0  0  0  0  0  0  0  0
  -14.8112   17.3426  -19.5463 H   0  0  0  0  0  0  0  0  0  0  0  0
  -18.0763   12.0703  -22.1942 C   0  0  0  0  0  0  0  0  0  0  0  0
  -17.0446   10.9237  -22.2371 C   0  0  0  0  0  0  0  0  0  0  0  0
  -16.1457   10.8659  -23.4509 C   0  0  0  0  0  0  0  0  0  0  0  0
  -15.0361   11.4535  -23.3989 O   0  0  0  0  0  0  0  0  0  0  0  0
  -16.5189   10.2133  -24.6691 N   0  0  0  0  0  0  0  0  0  0  0  0
  -17.4830    9.8652  -24.8492 H   0  0  0  0  0  0  0  0  0  0  0  0
  -15.8410   10.1780  -25.4670 H   0  0  0  0  0  0  0  0  0  0  0  0
  -11.7965   11.6979  -18.1334 C   0  0  0  0  0  0  0  0  0  0  0  0
  -10.5646   11.2950  -18.6776 O   0  0  0  0  0  0  0  0  0  0  0  0
  -10.3879   11.8963  -19.4514 H   0  0  0  0  0  0  0  0  0  0  0  0
  -12.1539    7.3556  -17.9214 C   0  0  0  0  0  0  0  0  0  0  0  0
  -10.6738    7.5412  -18.1017 C   0  0  0  0  0  0  0  0  0  0  0  0
   -9.8131    6.6588  -18.7283 C   0  0  0  0  0  0  0  0  0  0  0  0
   -8.5538    7.1346  -18.6390 N   0  0  0  0  0  0  0  0  0  0  0  0
   -8.6821    8.2982  -17.9599 C   0  0  0  0  0  0  0  0  0  0  0  0
   -9.9605    8.5741  -17.6290 N   0  0  0  0  0  0  0  0  0  0  0  0
  -10.3036    9.3966  -17.0875 H   0  0  0  0  0  0  0  0  0  0  0  0
 95 96  1  0  0  0
 96 91  1  0  0  0
 91 92  2  0  0  0
 91 93  1  0  0  0
 93 90  1  0  0  0
 90103  1  0  0  0
103104  1  0  0  0
104105  1  0  0  0
105106  2  0  0  0
105107  1  0  0  0
 90 86  1  0  0  0
 86 87  2  0  0  0
 86 88  1  0  0  0
 88 85  1  0  0  0
 85110  1  0  0  0
110111  1  0  0  0
111112  1  0  0  0
112113  2  0  0  0
112114  1  0  0  0
 85 81  1  0  0  0
 81 82  2  0  0  0
 81 83  1  0  0  0
 83 79  1  0  0  0
 79 80  1  0  0  0
 79 75  1  0  0  0
 75 76  2  0  0  0
 75 77  1  0  0  0
 77 74  1  0  0  0
 74117  1  0  0  0
117118  1  0  0  0
 74 70  1  0  0  0
 70 71  2  0  0  0
 70 72  1  0  0  0
 72 69  1  0  0  0
 69120  1  0  0  0
120121  1  0  0  0
121122  2  0  0  0
122123  1  0  0  0
123124  2  0  0  0
124125  1  0  0  0
 69 65  1  0  0  0
 65 66  2  0  0  0
 65 67  1  0  0  0
 67  1  1  0  0  0
  1  2  1  0  0  0
  2  3  2  0  0  0
  3  4  1  0  0  0
  4  5  2  0  0  0
  5  6  1  0  0  0
  5  7  1  0  0  0
  7  8  2  0  0  0
  1 10  1  0  0  0
 10 11  2  0  0  0
 10 12  1  0  0  0
 12 14  1  0  0  0
 14 58  1  0  0  0
 58 59  1  0  0  0
 59 60  1  0  0  0
 60 61  1  0  0  0
 61 62  1  0  0  0
 14 15  1  0  0  0
 15 16  2  0  0  0
 15 17  1  0  0  0
 17 19  1  0  0  0
 19 51  1  0  0  0
 51 52  1  0  0  0
 52 53  1  0  0  0
 53 54  2  0  0  0
 53 55  1  0  0  0
 19 20  1  0  0  0
 20 21  2  0  0  0
 20 22  1  0  0  0
 22 24  1  0  0  0
 24 44  1  0  0  0
 44 45  1  0  0  0
 45 46  2  0  0  0
 46 47  1  0  0  0
 47 48  2  0  0  0
 48 49  1  0  0  0
 24 25  1  0  0  0
 25 26  2  0  0  0
 25 27  1  0  0  0
 27 29  1  0  0  0
 29 41  1  0  0  0
 41 42  1  0  0  0
 29 30  1  0  0  0
 30 31  2  0  0  0
 30 32  1  0  0  0
 32 33  1  0  0  0
 33 34  1  0  0  0
 34 35  1  0  0  0
 35 36  1  0  0  0
 36 37  1  0  0  0
 37 38  1  0  0  0
 37 39  2  0  0  0
 96 99  1  0  0  0
 99100  1  0  0  0
 99101  1  0  0  0
125121  1  0  0  0
  8  2  1  0  0  0
 49 45  1  0  0  0
 36 32  1  0  0  0
 95 97  1  0  0  0
 95 98  1  0  0  0
 93 94  1  0  0  0
107108  1  0  0  0
107109  1  0  0  0
 88 89  1  0  0  0
114115  1  0  0  0
114116  1  0  0  0
 83 84  1  0  0  0
 77 78  1  0  0  0
118119  1  0  0  0
 72 73  1  0  0  0
125126  1  0  0  0
 67 68  1  0  0  0
  6  9  1  0  0  0
 12 13  1  0  0  0
 62 63  1  0  0  0
 62 64  1  0  0  0
 17 18  1  0  0  0
 55 56  1  0  0  0
 55 57  1  0  0  0
 22 23  1  0  0  0
 49 50  1  0  0  0
 27 28  1  0  0  0
 42 43  1  0  0  0
 38 40  1  0  0  0
100102  1  0  0  0
M  END
> <minimizedAffinity>
0.14027

$$$$



126129  0  0  0  0  0  0  0  0999 V2000
  -20.8691  -13.0891    8.0031 C   0  0  0  0  0  0  0  0  0  0  0  0
  -22.0977  -13.1423    8.8814 C   0  0  0  0  0  0  0  0  0  0  0  0
  -23.2338  -13.8749    8.4929 C   0  0  0  0  0  0  0  0  0  0  0  0
  -24.3445  -13.9565    9.3361 C   0  0  0  0  0  0  0  0  0  0  0  0
  -24.3447  -13.2921   10.5690 C   0  0  0  0  0  0  0  0  0  0  0  0
  -25.4571  -13.3820   11.4049 O   0  0  0  0  0  0  0  0  0  0  0  0
  -23.2243  -12.5473   10.9563 C   0  0  0  0  0  0  0  0  0  0  0  0
  -22.1048  -12.4817   10.1203 C   0  0  0  0  0  0  0  0  0  0  0  0
  -25.4980  -12.8741   12.2808 H   0  0  0  0  0  0  0  0  0  0  0  0
  -19.7377  -13.8681    8.6214 C   0  0  0  0  0  0  0  0  0  0  0  0
  -19.9573  -14.9657    9.1981 O   0  0  0  0  0  0  0  0  0  0  0  0
  -18.4063  -13.3360    8.5915 N   0  0  0  0  0  0  0  0  0  0  0  0
  -18.0945  -12.8986    7.6938 H   0  0  0  0  0  0  0  0  0  0  0  0
  -17.6112  -13.0176    9.7890 C   0  0  0  0  0  0  0  0  0  0  0  0
  -16.8461  -14.2481   10.2153 C   0  0  0  0  0  0  0  0  0  0  0  0
  -16.9627  -14.7010   11.3900 O   0  0  0  0  0  0  0  0  0  0  0  0
  -15.9725  -14.8956    9.2798 N   0  0  0  0  0  0  0  0  0  0  0  0
  -16.0556  -14.6357    8.2703 H   0  0  0  0  0  0  0  0  0  0  0  0
  -14.7525  -15.5859    9.7137 C   0  0  0  0  0  0  0  0  0  0  0  0
  -14.0449  -16.1753    8.5173 C   0  0  0  0  0  0  0  0  0  0  0  0
  -12.9136  -16.7083    8.6673 O   0  0  0  0  0  0  0  0  0  0  0  0
  -14.6840  -16.1889    7.2276 N   0  0  0  0  0  0  0  0  0  0  0  0
  -15.6557  -15.8010    7.1705 H   0  0  0  0  0  0  0  0  0  0  0  0
  -14.1478  -16.9711    6.1012 C   0  0  0  0  0  0  0  0  0  0  0  0
  -14.5203  -16.3642    4.7635 C   0  0  0  0  0  0  0  0  0  0  0  0
  -15.7118  -16.4459    4.3579 O   0  0  0  0  0  0  0  0  0  0  0  0
  -13.5297  -15.8195    3.8707 N   0  0  0  0  0  0  0  0  0  0  0  0
  -13.6669  -16.0264    2.8529 H   0  0  0  0  0  0  0  0  0  0  0  0
  -12.5649  -14.7521    4.1929 C   0  0  0  0  0  0  0  0  0  0  0  0
  -13.2076  -13.6457    4.9989 C   0  0  0  0  0  0  0  0  0  0  0  0
  -13.0793  -13.6231    6.2481 O   0  0  0  0  0  0  0  0  0  0  0  0
  -14.0743  -12.6846    4.3809 N   0  0  0  0  0  0  0  0  0  0  0  0
  -13.6077  -11.3928    3.9082 C   0  0  0  0  0  0  0  0  0  0  0  0
  -14.8561  -10.5364    3.7559 C   0  0  0  0  0  0  0  0  0  0  0  0
  -16.0241  -11.5191    3.7084 C   0  0  0  0  0  0  0  0  0  0  0  0
  -15.5278  -12.7841    4.4108 C   0  0  0  0  0  0  0  0  0  0  0  0
  -16.0361  -12.8553    5.8247 C   0  0  0  0  0  0  0  0  0  0  0  0
  -16.2673  -14.0919    6.4099 O   0  0  0  0  0  0  0  0  0  0  0  0
  -16.2817  -11.7979    6.4651 O   0  0  0  0  0  0  0  0  0  0  0  0
  -16.6236  -14.1615    7.3553 H   0  0  0  0  0  0  0  0  0  0  0  0
  -11.2995  -15.3276    4.8609 C   0  0  0  0  0  0  0  0  0  0  0  0
   -9.7857  -14.9219    3.9259 S   0  0  0  0  0  0  0  0  0  0  0  0
   -9.9579  -13.5315    3.9934 H   0  0  0  0  0  0  0  0  0  0  0  0
  -14.6382  -18.4319    6.2003 C   0  0  0  0  0  0  0  0  0  0  0  0
  -13.5382  -19.3879    6.5842 C   0  0  0  0  0  0  0  0  0  0  0  0
  -12.7938  -20.1669    5.7280 C   0  0  0  0  0  0  0  0  0  0  0  0
  -11.9344  -20.9160    6.4455 N   0  0  0  0  0  0  0  0  0  0  0  0
  -12.1878  -20.5798    7.7285 C   0  0  0  0  0  0  0  0  0  0  0  0
  -13.1566  -19.6536    7.8460 N   0  0  0  0  0  0  0  0  0  0  0  0
  -13.5560  -19.2649    8.7291 H   0  0  0  0  0  0  0  0  0  0  0  0
  -13.8167  -14.5991   10.4438 C   0  0  0  0  0  0  0  0  0  0  0  0
  -13.5747  -14.9956   11.9102 C   0  0  0  0  0  0  0  0  0  0  0  0
  -12.7420  -16.2440   12.0061 C   0  0  0  0  0  0  0  0  0  0  0  0
  -13.1607  -17.2279   12.6726 O   0  0  0  0  0  0  0  0  0  0  0  0
  -11.4727  -16.3196   11.3540 N   0  0  0  0  0  0  0  0  0  0  0  0
  -10.9155  -17.2025   11.3849 H   0  0  0  0  0  0  0  0  0  0  0  0
  -11.0758  -15.4978   10.8481 H   0  0  0  0  0  0  0  0  0  0  0  0
  -18.4517  -12.4112   10.9415 C   0  0  0  0  0  0  0  0  0  0  0  0
  -18.3493  -10.8774   11.0016 C   0  0  0  0  0  0  0  0  0  0  0  0
  -19.2278  -10.1747    9.9508 C   0  0  0  0  0  0  0  0  0  0  0  0
  -18.4592   -9.5826    8.7508 C   0  0  0  0  0  0  0  0  0  0  0  0
  -18.6650  -10.3466    7.5179 N   0  0  0  0  0  0  0  0  0  0  0  0
  -19.6467  -10.1942    7.1849 H   0  0  0  0  0  0  0  0  0  0  0  0
  -18.5491  -11.3609    7.7201 H   0  0  0  0  0  0  0  0  0  0  0  0
  -20.1618  -13.6305    5.6550 C   0  0  0  0  0  0  0  0  0  0  0  0
  -19.4357  -12.6215    5.4496 O   0  0  0  0  0  0  0  0  0  0  0  0
  -21.1788  -13.5864    6.6591 N   0  0  0  0  0  0  0  0  0  0  0  0
  -22.0882  -14.0719    6.4779 H   0  0  0  0  0  0  0  0  0  0  0  0
  -19.8279  -14.9421    5.0066 C   0  0  0  0  0  0  0  0  0  0  0  0
  -18.5482  -16.5454    6.5185 C   0  0  0  0  0  0  0  0  0  0  0  0
  -17.7137  -16.5199    7.4695 O   0  0  0  0  0  0  0  0  0  0  0  0
  -18.5840  -15.4397    5.6002 N   0  0  0  0  0  0  0  0  0  0  0  0
  -17.7652  -14.7942    5.6229 H   0  0  0  0  0  0  0  0  0  0  0  0
  -19.4151  -17.7679    6.3027 C   0  0  0  0  0  0  0  0  0  0  0  0
  -21.4936  -17.7482    7.7512 C   0  0  0  0  0  0  0  0  0  0  0  0
  -21.9447  -16.7353    7.1484 O   0  0  0  0  0  0  0  0  0  0  0  0
  -20.1387  -18.1671    7.5186 N   0  0  0  0  0  0  0  0  0  0  0  0
  -19.6986  -18.8023    8.2188 H   0  0  0  0  0  0  0  0  0  0  0  0
  -22.3664  -18.5381    8.6975 C   0  0  0  0  0  0  0  0  0  0  0  0
  -23.6424  -17.7497    8.9903 C   0  0  0  0  0  0  0  0  0  0  0  0
  -21.2437  -20.1996   10.2801 C   0  0  0  0  0  0  0  0  0  0  0  0
  -21.5909  -21.1725    9.5570 O   0  0  0  0  0  0  0  0  0  0  0  0
  -21.6722  -18.8659    9.9549 N   0  0  0  0  0  0  0  0  0  0  0  0
  -21.4293  -18.1168   10.6374 H   0  0  0  0  0  0  0  0  0  0  0  0
  -20.3765  -20.4470   11.4898 C   0  0  0  0  0  0  0  0  0  0  0  0
  -18.2753  -21.7639   10.9543 C   0  0  0  0  0  0  0  0  0  0  0  0
  -17.4303  -22.1864   11.7920 O   0  0  0  0  0  0  0  0  0  0  0  0
  -19.6559  -21.7145   11.3327 N   0  0  0  0  0  0  0  0  0  0  0  0
  -19.9982  -22.5221   11.8917 H   0  0  0  0  0  0  0  0  0  0  0  0
  -17.8074  -21.4811    9.5363 C   0  0  0  0  0  0  0  0  0  0  0  0
  -16.9281  -19.1315    9.6889 C   0  0  0  0  0  0  0  0  0  0  0  0
  -15.6998  -19.3582    9.5089 O   0  0  0  0  0  0  0  0  0  0  0  0
  -17.8966  -20.0606    9.1909 N   0  0  0  0  0  0  0  0  0  0  0  0
  -18.6369  -19.7110    8.5458 H   0  0  0  0  0  0  0  0  0  0  0  0
  -18.7578  -17.5825   10.1713 N   0  0  0  0  0  0  0  0  0  0  0  0
  -17.3718  -17.9366   10.5061 C   0  0  0  0  0  0  0  0  0  0  0  0
  -18.9921  -16.6815   10.6504 H   0  0  0  0  0  0  0  0  0  0  0  0
  -18.8111  -17.3810    9.1474 H   0  0  0  0  0  0  0  0  0  0  0  0
  -17.2032  -18.1854   12.0215 C   0  0  0  0  0  0  0  0  0  0  0  0
  -16.0511  -17.5076   12.4668 O   0  0  0  0  0  0  0  0  0  0  0  0
  -18.4162  -17.7133   12.8355 C   0  0  0  0  0  0  0  0  0  0  0  0
  -15.8237  -17.8813   13.3562 H   0  0  0  0  0  0  0  0  0  0  0  0
  -18.5618  -22.3447    8.5105 C   0  0  0  0  0  0  0  0  0  0  0  0
  -18.4253  -23.8594    8.7468 C   0  0  0  0  0  0  0  0  0  0  0  0
  -19.7422  -24.5807    8.6073 C   0  0  0  0  0  0  0  0  0  0  0  0
  -19.8332  -25.6529    7.9542 O   0  0  0  0  0  0  0  0  0  0  0  0
  -20.9060  -24.0501    9.2387 N   0  0  0  0  0  0  0  0  0  0  0  0
  -21.8180  -24.5488    9.1656 H   0  0  0  0  0  0  0  0  0  0  0  0
  -20.8480  -23.1830    9.8221 H   0  0  0  0  0  0  0  0  0  0  0  0
  -21.1151  -20.3855   12.8605 C   0  0  0  0  0  0  0  0  0  0  0  0
  -21.4733  -21.7207   13.5459 C   0  0  0  0  0  0  0  0  0  0  0  0
  -22.5694  -22.5397   12.9033 C   0  0  0  0  0  0  0  0  0  0  0  0
  -22.2535  -23.3507   11.9970 O   0  0  0  0  0  0  0  0  0  0  0  0
  -23.9520  -22.4008   13.2471 N   0  0  0  0  0  0  0  0  0  0  0  0
  -24.3079  -21.6314   13.8508 H   0  0  0  0  0  0  0  0  0  0  0  0
  -24.6642  -23.0188   12.7907 H   0  0  0  0  0  0  0  0  0  0  0  0
  -18.5387  -18.9280    5.7863 C   0  0  0  0  0  0  0  0  0  0  0  0
  -17.5240  -18.4511    4.9384 O   0  0  0  0  0  0  0  0  0  0  0  0
  -16.7562  -18.2104    5.5251 H   0  0  0  0  0  0  0  0  0  0  0  0
  -19.6935  -14.8105    3.4784 C   0  0  0  0  0  0  0  0  0  0  0  0
  -19.4424  -16.1534    2.8530 C   0  0  0  0  0  0  0  0  0  0  0  0
  -20.3630  -17.1773    2.7261 C   0  0  0  0  0  0  0  0  0  0  0  0
  -19.7565  -18.2482    2.1734 N   0  0  0  0  0  0  0  0  0  0  0  0
  -18.4794  -17.8459    1.9765 C   0  0  0  0  0  0  0  0  0  0  0  0
  -18.2631  -16.5745    2.3722 N   0  0  0  0  0  0  0  0  0  0  0  0
  -17.3596  -16.0545    2.3425 H   0  0  0  0  0  0  0  0  0  0  0  0
 95 96  1  0  0  0
 96 91  1  0  0  0
 91 92  2  0  0  0
 91 93  1  0  0  0
 93 90  1  0  0  0
 90103  1  0  0  0
103104  1  0  0  0
104105  1  0  0  0
105106  2  0  0  0
105107  1  0  0  0
 90 86  1  0  0  0
 86 87  2  0  0  0
 86 88  1  0  0  0
 88 85  1  0  0  0
 85110  1  0  0  0
110111  1  0  0  0
111112  1  0  0  0
112113  2  0  0  0
112114  1  0  0  0
 85 81  1  0  0  0
 81 82  2  0  0  0
 81 83  1  0  0  0
 83 79  1  0  0  0
 79 80  1  0  0  0
 79 75  1  0  0  0
 75 76  2  0  0  0
 75 77  1  0  0  0
 77 74  1  0  0  0
 74117  1  0  0  0
117118  1  0  0  0
 74 70  1  0  0  0
 70 71  2  0  0  0
 70 72  1  0  0  0
 72 69  1  0  0  0
 69120  1  0  0  0
120121  1  0  0  0
121122  2  0  0  0
122123  1  0  0  0
123124  2  0  0  0
124125  1  0  0  0
 69 65  1  0  0  0
 65 66  2  0  0  0
 65 67  1  0  0  0
 67  1  1  0  0  0
  1  2  1  0  0  0
  2  3  2  0  0  0
  3  4  1  0  0  0
  4  5  2  0  0  0
  5  6  1  0  0  0
  5  7  1  0  0  0
  7  8  2  0  0  0
  1 10  1  0  0  0
 10 11  2  0  0  0
 10 12  1  0  0  0
 12 14  1  0  0  0
 14 58  1  0  0  0
 58 59  1  0  0  0
 59 60  1  0  0  0
 60 61  1  0  0  0
 61 62  1  0  0  0
 14 15  1  0  0  0
 15 16  2  0  0  0
 15 17  1  0  0  0
 17 19  1  0  0  0
 19 51  1  0  0  0
 51 52  1  0  0  0
 52 53  1  0  0  0
 53 54  2  0  0  0
 53 55  1  0  0  0
 19 20  1  0  0  0
 20 21  2  0  0  0
 20 22  1  0  0  0
 22 24  1  0  0  0
 24 44  1  0  0  0
 44 45  1  0  0  0
 45 46  2  0  0  0
 46 47  1  0  0  0
 47 48  2  0  0  0
 48 49  1  0  0  0
 24 25  1  0  0  0
 25 26  2  0  0  0
 25 27  1  0  0  0
 27 29  1  0  0  0
 29 41  1  0  0  0
 41 42  1  0  0  0
 29 30  1  0  0  0
 30 31  2  0  0  0
 30 32  1  0  0  0
 32 33  1  0  0  0
 33 34  1  0  0  0
 34 35  1  0  0  0
 35 36  1  0  0  0
 36 37  1  0  0  0
 37 38  1  0  0  0
 37 39  2  0  0  0
 96 99  1  0  0  0
 99100  1  0  0  0
 99101  1  0  0  0
125121  1  0  0  0
  8  2  1  0  0  0
 49 45  1  0  0  0
 36 32  1  0  0  0
 95 97  1  0  0  0
 95 98  1  0  0  0
 93 94  1  0  0  0
107108  1  0  0  0
107109  1  0  0  0
 88 89  1  0  0  0
114115  1  0  0  0
114116  1  0  0  0
 83 84  1  0  0  0
 77 78  1  0  0  0
118119  1  0  0  0
 72 73  1  0  0  0
125126  1  0  0  0
 67 68  1  0  0  0
  6  9  1  0  0  0
 12 13  1  0  0  0
 62 63  1  0  0  0
 62 64  1  0  0  0
 17 18  1  0  0  0
 55 56  1  0  0  0
 55 57  1  0  0  0
 22 23  1  0  0  0
 49 50  1  0  0  0
 27 28  1  0  0  0
 42 43  1  0  0  0
 38 40  1  0  0  0
100102  1  0  0  0
M  END
> <minimizedAffinity>
0.14679

$$$$



126129  0  0  0  0  0  0  0  0999 V2000
   12.4471   29.1033   32.5091 C   0  0  0  0  0  0  0  0  0  0  0  0
   12.9436   29.5358   31.1489 C   0  0  0  0  0  0  0  0  0  0  0  0
   13.3643   30.8581   30.9190 C   0  0  0  0  0  0  0  0  0  0  0  0
   13.8673   31.2328   29.6709 C   0  0  0  0  0  0  0  0  0  0  0  0
   13.9387   30.2988   28.6296 C   0  0  0  0  0  0  0  0  0  0  0  0
   14.4450   30.6818   27.3882 O   0  0  0  0  0  0  0  0  0  0  0  0
   13.5068   28.9847   28.8451 C   0  0  0  0  0  0  0  0  0  0  0  0
   13.0213   28.6049   30.1008 C   0  0  0  0  0  0  0  0  0  0  0  0
   14.4649   30.0361   26.6074 H   0  0  0  0  0  0  0  0  0  0  0  0
   11.2720   29.9419   32.9391 C   0  0  0  0  0  0  0  0  0  0  0  0
   10.5716   30.5467   32.0852 O   0  0  0  0  0  0  0  0  0  0  0  0
   10.9736   30.0884   34.3341 N   0  0  0  0  0  0  0  0  0  0  0  0
   11.0342   29.2248   34.9214 H   0  0  0  0  0  0  0  0  0  0  0  0
   10.9692   31.3732   35.0529 C   0  0  0  0  0  0  0  0  0  0  0  0
   12.1890   31.4464   35.9407 C   0  0  0  0  0  0  0  0  0  0  0  0
   12.3898   32.4577   36.6727 O   0  0  0  0  0  0  0  0  0  0  0  0
   13.1293   30.3633   35.9393 N   0  0  0  0  0  0  0  0  0  0  0  0
   12.8378   29.4613   35.4977 H   0  0  0  0  0  0  0  0  0  0  0  0
   14.5615   30.5844   36.1699 C   0  0  0  0  0  0  0  0  0  0  0  0
   15.3416   29.3599   35.7559 C   0  0  0  0  0  0  0  0  0  0  0  0
   16.5660   29.2802   36.0400 O   0  0  0  0  0  0  0  0  0  0  0  0
   14.6796   28.2623   35.1007 N   0  0  0  0  0  0  0  0  0  0  0  0
   13.6455   28.3454   34.9542 H   0  0  0  0  0  0  0  0  0  0  0  0
   15.3368   26.9585   34.9104 C   0  0  0  0  0  0  0  0  0  0  0  0
   15.4528   26.5926   33.4444 C   0  0  0  0  0  0  0  0  0  0  0  0
   14.6406   25.7654   32.9476 O   0  0  0  0  0  0  0  0  0  0  0  0
   16.5488   27.0494   32.6287 N   0  0  0  0  0  0  0  0  0  0  0  0
   16.9429   26.3488   31.9567 H   0  0  0  0  0  0  0  0  0  0  0  0
   16.9378   28.4541   32.4062 C   0  0  0  0  0  0  0  0  0  0  0  0
   18.3861   28.6946   32.7683 C   0  0  0  0  0  0  0  0  0  0  0  0
   19.1091   27.7354   33.1355 O   0  0  0  0  0  0  0  0  0  0  0  0
   18.9260   30.0220   32.8267 N   0  0  0  0  0  0  0  0  0  0  0  0
   19.6193   30.6398   31.7099 C   0  0  0  0  0  0  0  0  0  0  0  0
   20.4010   31.8020   32.3047 C   0  0  0  0  0  0  0  0  0  0  0  0
   19.7571   32.0773   33.6618 C   0  0  0  0  0  0  0  0  0  0  0  0
   19.0769   30.7690   34.0688 C   0  0  0  0  0  0  0  0  0  0  0  0
   19.9135   30.0073   35.0599 C   0  0  0  0  0  0  0  0  0  0  0  0
   19.3025   29.1277   35.9419 O   0  0  0  0  0  0  0  0  0  0  0  0
   21.1596   30.1896   35.1118 O   0  0  0  0  0  0  0  0  0  0  0  0
   19.8459   28.6165   36.6268 H   0  0  0  0  0  0  0  0  0  0  0  0
   16.5912   28.9081   30.9735 C   0  0  0  0  0  0  0  0  0  0  0  0
   17.4601   27.9172   29.7111 S   0  0  0  0  0  0  0  0  0  0  0  0
   16.9349   26.6848   30.1267 H   0  0  0  0  0  0  0  0  0  0  0  0
   14.5710   25.8693   35.6923 C   0  0  0  0  0  0  0  0  0  0  0  0
   15.4628   24.7376   36.1343 C   0  0  0  0  0  0  0  0  0  0  0  0
   16.1925   24.6764   37.2995 C   0  0  0  0  0  0  0  0  0  0  0  0
   16.8933   23.5263   37.3228 N   0  0  0  0  0  0  0  0  0  0  0  0
   16.5790   22.9190   36.1584 C   0  0  0  0  0  0  0  0  0  0  0  0
   15.7118   23.6294   35.4143 N   0  0  0  0  0  0  0  0  0  0  0  0
   15.3517   23.3913   34.4635 H   0  0  0  0  0  0  0  0  0  0  0  0
   15.0442   31.8110   35.3669 C   0  0  0  0  0  0  0  0  0  0  0  0
   15.2504   31.4923   33.8762 C   0  0  0  0  0  0  0  0  0  0  0  0
   15.8585   32.6597   33.1492 C   0  0  0  0  0  0  0  0  0  0  0  0
   15.7860   33.8152   33.6464 O   0  0  0  0  0  0  0  0  0  0  0  0
   16.5107   32.4698   31.8920 N   0  0  0  0  0  0  0  0  0  0  0  0
   16.9708   33.2739   31.4096 H   0  0  0  0  0  0  0  0  0  0  0  0
   16.5301   31.5345   31.4297 H   0  0  0  0  0  0  0  0  0  0  0  0
    9.6534   31.6398   35.8275 C   0  0  0  0  0  0  0  0  0  0  0  0
    9.4201   30.6247   36.9596 C   0  0  0  0  0  0  0  0  0  0  0  0
    7.9906   30.6769   37.5286 C   0  0  0  0  0  0  0  0  0  0  0  0
    7.1716   29.3812   37.3504 C   0  0  0  0  0  0  0  0  0  0  0  0
    6.1150   29.5168   36.3448 N   0  0  0  0  0  0  0  0  0  0  0  0
    6.5558   29.5729   35.3959 H   0  0  0  0  0  0  0  0  0  0  0  0
    5.5966   30.4039   36.5102 H   0  0  0  0  0  0  0  0  0  0  0  0
   11.4068   27.0972   33.6049 C   0  0  0  0  0  0  0  0  0  0  0  0
   11.8069   27.3080   34.7808 O   0  0  0  0  0  0  0  0  0  0  0  0
   12.1020   27.6783   32.4987 N   0  0  0  0  0  0  0  0  0  0  0  0
   12.2028   27.1223   31.6177 H   0  0  0  0  0  0  0  0  0  0  0  0
   10.0877   26.4217   33.3687 C   0  0  0  0  0  0  0  0  0  0  0  0
    8.2527   28.1897   33.3347 C   0  0  0  0  0  0  0  0  0  0  0  0
    7.9158   29.2459   33.9449 O   0  0  0  0  0  0  0  0  0  0  0  0
    9.0464   27.2128   34.0298 N   0  0  0  0  0  0  0  0  0  0  0  0
    9.0983   27.3133   35.0665 H   0  0  0  0  0  0  0  0  0  0  0  0
    7.7379   27.9250   31.9356 C   0  0  0  0  0  0  0  0  0  0  0  0
    9.2219   28.5089   29.9669 C   0  0  0  0  0  0  0  0  0  0  0  0
    9.9379   27.4877   30.1609 O   0  0  0  0  0  0  0  0  0  0  0  0
    8.2507   28.8923   30.9543 N   0  0  0  0  0  0  0  0  0  0  0  0
    7.8858   29.8687   30.9246 H   0  0  0  0  0  0  0  0  0  0  0  0
    9.3580   29.3202   28.7002 C   0  0  0  0  0  0  0  0  0  0  0  0
   10.1206   28.5070   27.6549 C   0  0  0  0  0  0  0  0  0  0  0  0
    9.3206   31.8552   29.0136 C   0  0  0  0  0  0  0  0  0  0  0  0
    8.0930   31.9046   28.7300 O   0  0  0  0  0  0  0  0  0  0  0  0
   10.0334   30.6088   28.9328 N   0  0  0  0  0  0  0  0  0  0  0  0
   11.0625   30.6470   29.0917 H   0  0  0  0  0  0  0  0  0  0  0  0
   10.0353   33.1149   29.4366 C   0  0  0  0  0  0  0  0  0  0  0  0
    9.0928   35.0959   30.7108 C   0  0  0  0  0  0  0  0  0  0  0  0
    9.3855   36.3092   30.5190 O   0  0  0  0  0  0  0  0  0  0  0  0
    9.0683   34.2070   29.5879 N   0  0  0  0  0  0  0  0  0  0  0  0
    8.6590   34.5965   28.7147 H   0  0  0  0  0  0  0  0  0  0  0  0
    8.6262   34.6754   32.0946 C   0  0  0  0  0  0  0  0  0  0  0  0
    6.7342   36.1935   32.7526 C   0  0  0  0  0  0  0  0  0  0  0  0
    5.8246   35.3334   32.9116 O   0  0  0  0  0  0  0  0  0  0  0  0
    8.1052   35.8002   32.8748 N   0  0  0  0  0  0  0  0  0  0  0  0
    8.7088   36.3029   33.5598 H   0  0  0  0  0  0  0  0  0  0  0  0
    7.6074   38.3703   32.0605 N   0  0  0  0  0  0  0  0  0  0  0  0
    6.3835   37.6084   32.3431 C   0  0  0  0  0  0  0  0  0  0  0  0
    7.3436   39.3722   31.9087 H   0  0  0  0  0  0  0  0  0  0  0  0
    8.2086   38.3622   32.9151 H   0  0  0  0  0  0  0  0  0  0  0  0
    5.4135   37.6323   31.1410 C   0  0  0  0  0  0  0  0  0  0  0  0
    4.5921   38.7724   31.2436 O   0  0  0  0  0  0  0  0  0  0  0  0
    6.1462   37.6544   29.7920 C   0  0  0  0  0  0  0  0  0  0  0  0
    3.8297   38.6338   30.6258 H   0  0  0  0  0  0  0  0  0  0  0  0
    9.7362   33.9395   32.8649 C   0  0  0  0  0  0  0  0  0  0  0  0
   10.6857   34.8723   33.6378 C   0  0  0  0  0  0  0  0  0  0  0  0
   12.1192   34.4084   33.5752 C   0  0  0  0  0  0  0  0  0  0  0  0
   12.5392   33.7145   32.6126 O   0  0  0  0  0  0  0  0  0  0  0  0
   13.0235   34.7736   34.6160 N   0  0  0  0  0  0  0  0  0  0  0  0
   14.0211   34.4752   34.5751 H   0  0  0  0  0  0  0  0  0  0  0  0
   12.7094   35.3849   35.4055 H   0  0  0  0  0  0  0  0  0  0  0  0
   11.2269   33.5402   28.5269 C   0  0  0  0  0  0  0  0  0  0  0  0
   12.2988   34.4704   29.1325 C   0  0  0  0  0  0  0  0  0  0  0  0
   12.3433   35.8864   28.6055 C   0  0  0  0  0  0  0  0  0  0  0  0
   13.4206   36.5256   28.7056 O   0  0  0  0  0  0  0  0  0  0  0  0
   11.2051   36.5461   28.0412 N   0  0  0  0  0  0  0  0  0  0  0  0
   10.2436   36.1508   28.0895 H   0  0  0  0  0  0  0  0  0  0  0  0
   11.3041   37.5178   27.6626 H   0  0  0  0  0  0  0  0  0  0  0  0
    6.1951   27.9330   31.9514 C   0  0  0  0  0  0  0  0  0  0  0  0
    5.7045   27.5502   33.2119 O   0  0  0  0  0  0  0  0  0  0  0  0
    5.6557   28.3804   33.7595 H   0  0  0  0  0  0  0  0  0  0  0  0
   10.0847   24.9702   33.8826 C   0  0  0  0  0  0  0  0  0  0  0  0
   11.1589   24.1679   33.2044 C   0  0  0  0  0  0  0  0  0  0  0  0
   11.1739   23.7872   31.8752 C   0  0  0  0  0  0  0  0  0  0  0  0
   12.2635   23.0246   31.6483 N   0  0  0  0  0  0  0  0  0  0  0  0
   12.8855   22.9628   32.8487 C   0  0  0  0  0  0  0  0  0  0  0  0
   12.2407   23.6559   33.8099 N   0  0  0  0  0  0  0  0  0  0  0  0
   12.5130   23.7364   34.8133 H   0  0  0  0  0  0  0  0  0  0  0  0
 95 96  1  0  0  0
 96 91  1  0  0  0
 91 92  2  0  0  0
 91 93  1  0  0  0
 93 90  1  0  0  0
 90103  1  0  0  0
103104  1  0  0  0
104105  1  0  0  0
105106  2  0  0  0
105107  1  0  0  0
 90 86  1  0  0  0
 86 87  2  0  0  0
 86 88  1  0  0  0
 88 85  1  0  0  0
 85110  1  0  0  0
110111  1  0  0  0
111112  1  0  0  0
112113  2  0  0  0
112114  1  0  0  0
 85 81  1  0  0  0
 81 82  2  0  0  0
 81 83  1  0  0  0
 83 79  1  0  0  0
 79 80  1  0  0  0
 79 75  1  0  0  0
 75 76  2  0  0  0
 75 77  1  0  0  0
 77 74  1  0  0  0
 74117  1  0  0  0
117118  1  0  0  0
 74 70  1  0  0  0
 70 71  2  0  0  0
 70 72  1  0  0  0
 72 69  1  0  0  0
 69120  1  0  0  0
120121  1  0  0  0
121122  2  0  0  0
122123  1  0  0  0
123124  2  0  0  0
124125  1  0  0  0
 69 65  1  0  0  0
 65 66  2  0  0  0
 65 67  1  0  0  0
 67  1  1  0  0  0
  1  2  1  0  0  0
  2  3  2  0  0  0
  3  4  1  0  0  0
  4  5  2  0  0  0
  5  6  1  0  0  0
  5  7  1  0  0  0
  7  8  2  0  0  0
  1 10  1  0  0  0
 10 11  2  0  0  0
 10 12  1  0  0  0
 12 14  1  0  0  0
 14 58  1  0  0  0
 58 59  1  0  0  0
 59 60  1  0  0  0
 60 61  1  0  0  0
 61 62  1  0  0  0
 14 15  1  0  0  0
 15 16  2  0  0  0
 15 17  1  0  0  0
 17 19  1  0  0  0
 19 51  1  0  0  0
 51 52  1  0  0  0
 52 53  1  0  0  0
 53 54  2  0  0  0
 53 55  1  0  0  0
 19 20  1  0  0  0
 20 21  2  0  0  0
 20 22  1  0  0  0
 22 24  1  0  0  0
 24 44  1  0  0  0
 44 45  1  0  0  0
 45 46  2  0  0  0
 46 47  1  0  0  0
 47 48  2  0  0  0
 48 49  1  0  0  0
 24 25  1  0  0  0
 25 26  2  0  0  0
 25 27  1  0  0  0
 27 29  1  0  0  0
 29 41  1  0  0  0
 41 42  1  0  0  0
 29 30  1  0  0  0
 30 31  2  0  0  0
 30 32  1  0  0  0
 32 33  1  0  0  0
 33 34  1  0  0  0
 34 35  1  0  0  0
 35 36  1  0  0  0
 36 37  1  0  0  0
 37 38  1  0  0  0
 37 39  2  0  0  0
 96 99  1  0  0  0
 99100  1  0  0  0
 99101  1  0  0  0
125121  1  0  0  0
  8  2  1  0  0  0
 49 45  1  0  0  0
 36 32  1  0  0  0
 95 97  1  0  0  0
 95 98  1  0  0  0
 93 94  1  0  0  0
107108  1  0  0  0
107109  1  0  0  0
 88 89  1  0  0  0
114115  1  0  0  0
114116  1  0  0  0
 83 84  1  0  0  0
 77 78  1  0  0  0
118119  1  0  0  0
 72 73  1  0  0  0
125126  1  0  0  0
 67 68  1  0  0  0
  6  9  1  0  0  0
 12 13  1  0  0  0
 62 63  1  0  0  0
 62 64  1  0  0  0
 17 18  1  0  0  0
 55 56  1  0  0  0
 55 57  1  0  0  0
 22 23  1  0  0  0
 49 50  1  0  0  0
 27 28  1  0  0  0
 42 43  1  0  0  0
 38 40  1  0  0  0
100102  1  0  0  0
M  END
> <minimizedAffinity>
0.19736

$$$$



126129  0  0  0  0  0  0  0  0999 V2000
   11.2276   -9.1260   13.2023 C   0  0  0  0  0  0  0  0  0  0  0  0
   12.0714   -7.8724   13.2131 C   0  0  0  0  0  0  0  0  0  0  0  0
   12.5637   -7.3212   12.0163 C   0  0  0  0  0  0  0  0  0  0  0  0
   13.3010   -6.1349   12.0353 C   0  0  0  0  0  0  0  0  0  0  0  0
   13.5742   -5.4934   13.2500 C   0  0  0  0  0  0  0  0  0  0  0  0
   14.3086   -4.3081   13.2582 O   0  0  0  0  0  0  0  0  0  0  0  0
   13.1019   -6.0440   14.4473 C   0  0  0  0  0  0  0  0  0  0  0  0
   12.3470   -7.2214   14.4261 C   0  0  0  0  0  0  0  0  0  0  0  0
   14.5565   -3.8503   14.1276 H   0  0  0  0  0  0  0  0  0  0  0  0
   12.0531  -10.3208   12.8023 C   0  0  0  0  0  0  0  0  0  0  0  0
   11.6583  -11.0945   11.8908 O   0  0  0  0  0  0  0  0  0  0  0  0
   13.2771  -10.6049   13.4936 N   0  0  0  0  0  0  0  0  0  0  0  0
   13.8995   -9.7903   13.7023 H   0  0  0  0  0  0  0  0  0  0  0  0
   13.5381  -11.8418   14.2479 C   0  0  0  0  0  0  0  0  0  0  0  0
   12.5621  -11.9347   15.3969 C   0  0  0  0  0  0  0  0  0  0  0  0
   11.4420  -12.5007   15.2429 O   0  0  0  0  0  0  0  0  0  0  0  0
   12.9091  -11.3634   16.6660 N   0  0  0  0  0  0  0  0  0  0  0  0
   13.9073  -11.0966   16.8273 H   0  0  0  0  0  0  0  0  0  0  0  0
   11.8933  -10.7982   17.5615 C   0  0  0  0  0  0  0  0  0  0  0  0
   11.8213  -11.6113   18.8316 C   0  0  0  0  0  0  0  0  0  0  0  0
   12.8610  -11.7716   19.5242 O   0  0  0  0  0  0  0  0  0  0  0  0
   10.5630  -12.1439   19.2845 N   0  0  0  0  0  0  0  0  0  0  0  0
    9.7143  -11.9194   18.7126 H   0  0  0  0  0  0  0  0  0  0  0  0
   10.3997  -12.7176   20.6308 C   0  0  0  0  0  0  0  0  0  0  0  0
    9.5811  -13.9926   20.6064 C   0  0  0  0  0  0  0  0  0  0  0  0
    8.3222  -13.9185   20.5819 O   0  0  0  0  0  0  0  0  0  0  0  0
   10.1872  -15.2911   20.7538 N   0  0  0  0  0  0  0  0  0  0  0  0
    9.6640  -15.9760   21.3494 H   0  0  0  0  0  0  0  0  0  0  0  0
   11.2571  -15.8500   19.9070 C   0  0  0  0  0  0  0  0  0  0  0  0
   10.9785  -15.6257   18.4378 C   0  0  0  0  0  0  0  0  0  0  0  0
   11.6136  -14.7457   17.8055 O   0  0  0  0  0  0  0  0  0  0  0  0
    9.9084  -16.3104   17.7723 N   0  0  0  0  0  0  0  0  0  0  0  0
   10.1022  -17.5482   17.0373 C   0  0  0  0  0  0  0  0  0  0  0  0
    8.8812  -17.6879   16.1401 C   0  0  0  0  0  0  0  0  0  0  0  0
    7.8254  -16.7600   16.7371 C   0  0  0  0  0  0  0  0  0  0  0  0
    8.6018  -15.7105   17.5344 C   0  0  0  0  0  0  0  0  0  0  0  0
    8.7290  -14.4261   16.7620 C   0  0  0  0  0  0  0  0  0  0  0  0
    9.3427  -14.4309   15.5176 O   0  0  0  0  0  0  0  0  0  0  0  0
    8.3094  -13.3446   17.2549 O   0  0  0  0  0  0  0  0  0  0  0  0
    9.4516  -13.5745   14.9881 H   0  0  0  0  0  0  0  0  0  0  0  0
   12.6422  -15.3310   20.3440 C   0  0  0  0  0  0  0  0  0  0  0  0
   12.8372  -15.3418   22.1585 S   0  0  0  0  0  0  0  0  0  0  0  0
   12.6027  -16.7166   22.3080 H   0  0  0  0  0  0  0  0  0  0  0  0
    9.7629  -11.6705   21.5701 C   0  0  0  0  0  0  0  0  0  0  0  0
   10.7878  -10.7841   22.2299 C   0  0  0  0  0  0  0  0  0  0  0  0
   10.9692   -9.4376   22.0107 C   0  0  0  0  0  0  0  0  0  0  0  0
   12.0043   -9.0036   22.7556 N   0  0  0  0  0  0  0  0  0  0  0  0
   12.4359  -10.1067   23.4040 C   0  0  0  0  0  0  0  0  0  0  0  0
   11.7171  -11.2044   23.1063 N   0  0  0  0  0  0  0  0  0  0  0  0
   11.8801  -12.1782   23.4461 H   0  0  0  0  0  0  0  0  0  0  0  0
   12.2388   -9.3315   17.8958 C   0  0  0  0  0  0  0  0  0  0  0  0
   13.6483   -8.9380   17.4220 C   0  0  0  0  0  0  0  0  0  0  0  0
   13.9996   -7.5428   17.8592 C   0  0  0  0  0  0  0  0  0  0  0  0
   13.0933   -6.6755   17.9778 O   0  0  0  0  0  0  0  0  0  0  0  0
   15.3571   -7.1897   18.1326 N   0  0  0  0  0  0  0  0  0  0  0  0
   15.5940   -6.2331   18.4784 H   0  0  0  0  0  0  0  0  0  0  0  0
   16.1329   -7.8713   17.9825 H   0  0  0  0  0  0  0  0  0  0  0  0
   15.0119  -11.9826   14.7070 C   0  0  0  0  0  0  0  0  0  0  0  0
   15.5580  -13.4067   14.5063 C   0  0  0  0  0  0  0  0  0  0  0  0
   16.0380  -14.0566   15.8166 C   0  0  0  0  0  0  0  0  0  0  0  0
   14.9177  -14.6457   16.6993 C   0  0  0  0  0  0  0  0  0  0  0  0
   14.5680  -13.7727   17.8226 N   0  0  0  0  0  0  0  0  0  0  0  0
   14.0693  -12.9287   17.4529 H   0  0  0  0  0  0  0  0  0  0  0  0
   15.4401  -13.4503   18.2901 H   0  0  0  0  0  0  0  0  0  0  0  0
    9.2105   -9.0569   14.6970 C   0  0  0  0  0  0  0  0  0  0  0  0
    8.7256   -7.9665   14.2930 O   0  0  0  0  0  0  0  0  0  0  0  0
   10.6012   -9.3326   14.5119 N   0  0  0  0  0  0  0  0  0  0  0  0
   11.1187   -9.8446   15.2640 H   0  0  0  0  0  0  0  0  0  0  0  0
    8.3030  -10.1526   15.1746 C   0  0  0  0  0  0  0  0  0  0  0  0
    7.9697  -10.0439   17.6987 C   0  0  0  0  0  0  0  0  0  0  0  0
    8.6170   -9.7602   18.7485 O   0  0  0  0  0  0  0  0  0  0  0  0
    8.6926  -10.5020   16.5433 N   0  0  0  0  0  0  0  0  0  0  0  0
    9.6773  -10.8048   16.7051 H   0  0  0  0  0  0  0  0  0  0  0  0
    6.4564   -9.9962   17.7045 C   0  0  0  0  0  0  0  0  0  0  0  0
    5.2665  -12.2306   17.8088 C   0  0  0  0  0  0  0  0  0  0  0  0
    5.6001  -12.3896   19.0156 O   0  0  0  0  0  0  0  0  0  0  0  0
    5.8535  -11.1639   17.0453 N   0  0  0  0  0  0  0  0  0  0  0  0
    5.7979  -11.2217   16.0056 H   0  0  0  0  0  0  0  0  0  0  0  0
    4.2423  -13.1337   17.1634 C   0  0  0  0  0  0  0  0  0  0  0  0
    3.3627  -13.7595   18.2451 C   0  0  0  0  0  0  0  0  0  0  0  0
    5.2843  -13.9676   14.9852 C   0  0  0  0  0  0  0  0  0  0  0  0
    4.9868  -12.8942   14.3942 O   0  0  0  0  0  0  0  0  0  0  0  0
    4.8652  -14.1872   16.3432 N   0  0  0  0  0  0  0  0  0  0  0  0
    5.0627  -15.1270   16.7477 H   0  0  0  0  0  0  0  0  0  0  0  0
    6.0821  -15.0198   14.2549 C   0  0  0  0  0  0  0  0  0  0  0  0
    7.5197  -14.9544   12.1657 C   0  0  0  0  0  0  0  0  0  0  0  0
    7.2359  -14.3617   11.0875 O   0  0  0  0  0  0  0  0  0  0  0  0
    7.0887  -14.3772   13.4038 N   0  0  0  0  0  0  0  0  0  0  0  0
    7.1680  -13.3422   13.4693 H   0  0  0  0  0  0  0  0  0  0  0  0
    8.4398  -16.1624   12.1053 C   0  0  0  0  0  0  0  0  0  0  0  0
   10.5653  -14.9601   12.7000 C   0  0  0  0  0  0  0  0  0  0  0  0
   10.1605  -13.7682   12.6110 O   0  0  0  0  0  0  0  0  0  0  0  0
    9.6230  -16.0072   12.9545 N   0  0  0  0  0  0  0  0  0  0  0  0
    9.7760  -16.6257   13.7794 H   0  0  0  0  0  0  0  0  0  0  0  0
   12.6720  -14.1910   11.7253 N   0  0  0  0  0  0  0  0  0  0  0  0
   12.0205  -15.2928   12.4462 C   0  0  0  0  0  0  0  0  0  0  0  0
   13.6336  -14.5008   11.4503 H   0  0  0  0  0  0  0  0  0  0  0  0
   12.1590  -14.0310   10.8291 H   0  0  0  0  0  0  0  0  0  0  0  0
   12.7672  -15.6299   13.7560 C   0  0  0  0  0  0  0  0  0  0  0  0
   11.9225  -15.3425   14.8464 O   0  0  0  0  0  0  0  0  0  0  0  0
   13.2026  -17.1005   13.8251 C   0  0  0  0  0  0  0  0  0  0  0  0
   12.4951  -15.3197   15.6551 H   0  0  0  0  0  0  0  0  0  0  0  0
    8.8419  -16.4935   10.6576 C   0  0  0  0  0  0  0  0  0  0  0  0
    8.1480  -17.7426   10.0855 C   0  0  0  0  0  0  0  0  0  0  0  0
    7.0362  -17.3915    9.1292 C   0  0  0  0  0  0  0  0  0  0  0  0
    6.1903  -18.2508    8.7680 O   0  0  0  0  0  0  0  0  0  0  0  0
    6.9279  -16.0581    8.6344 N   0  0  0  0  0  0  0  0  0  0  0  0
    6.1532  -15.7981    7.9878 H   0  0  0  0  0  0  0  0  0  0  0  0
    7.5934  -15.3155    8.9522 H   0  0  0  0  0  0  0  0  0  0  0  0
    5.2385  -16.0520   13.4480 C   0  0  0  0  0  0  0  0  0  0  0  0
    5.2255  -17.5140   13.9416 C   0  0  0  0  0  0  0  0  0  0  0  0
    5.8455  -18.5441   13.0254 C   0  0  0  0  0  0  0  0  0  0  0  0
    5.2662  -18.8019   11.9405 O   0  0  0  0  0  0  0  0  0  0  0  0
    7.0339  -19.2701   13.3570 N   0  0  0  0  0  0  0  0  0  0  0  0
    7.4640  -19.2441   14.3042 H   0  0  0  0  0  0  0  0  0  0  0  0
    7.4355  -19.9492   12.6680 H   0  0  0  0  0  0  0  0  0  0  0  0
    5.9861   -8.6896   17.0321 C   0  0  0  0  0  0  0  0  0  0  0  0
    7.0151   -7.7318   17.0228 O   0  0  0  0  0  0  0  0  0  0  0  0
    7.5461   -7.8965   16.1967 H   0  0  0  0  0  0  0  0  0  0  0  0
    8.3582  -11.3867   14.2554 C   0  0  0  0  0  0  0  0  0  0  0  0
    7.8963  -11.0339   12.8698 C   0  0  0  0  0  0  0  0  0  0  0  0
    6.7147  -10.3938   12.5439 C   0  0  0  0  0  0  0  0  0  0  0  0
    6.6170  -10.3078   11.2011 N   0  0  0  0  0  0  0  0  0  0  0  0
    7.7458  -10.8979   10.7440 C   0  0  0  0  0  0  0  0  0  0  0  0
    8.5453  -11.3402   11.7367 N   0  0  0  0  0  0  0  0  0  0  0  0
    9.4516  -11.8454   11.6326 H   0  0  0  0  0  0  0  0  0  0  0  0
 95 96  1  0  0  0
 96 91  1  0  0  0
 91 92  2  0  0  0
 91 93  1  0  0  0
 93 90  1  0  0  0
 90103  1  0  0  0
103104  1  0  0  0
104105  1  0  0  0
105106  2  0  0  0
105107  1  0  0  0
 90 86  1  0  0  0
 86 87  2  0  0  0
 86 88  1  0  0  0
 88 85  1  0  0  0
 85110  1  0  0  0
110111  1  0  0  0
111112  1  0  0  0
112113  2  0  0  0
112114  1  0  0  0
 85 81  1  0  0  0
 81 82  2  0  0  0
 81 83  1  0  0  0
 83 79  1  0  0  0
 79 80  1  0  0  0
 79 75  1  0  0  0
 75 76  2  0  0  0
 75 77  1  0  0  0
 77 74  1  0  0  0
 74117  1  0  0  0
117118  1  0  0  0
 74 70  1  0  0  0
 70 71  2  0  0  0
 70 72  1  0  0  0
 72 69  1  0  0  0
 69120  1  0  0  0
120121  1  0  0  0
121122  2  0  0  0
122123  1  0  0  0
123124  2  0  0  0
124125  1  0  0  0
 69 65  1  0  0  0
 65 66  2  0  0  0
 65 67  1  0  0  0
 67  1  1  0  0  0
  1  2  1  0  0  0
  2  3  2  0  0  0
  3  4  1  0  0  0
  4  5  2  0  0  0
  5  6  1  0  0  0
  5  7  1  0  0  0
  7  8  2  0  0  0
  1 10  1  0  0  0
 10 11  2  0  0  0
 10 12  1  0  0  0
 12 14  1  0  0  0
 14 58  1  0  0  0
 58 59  1  0  0  0
 59 60  1  0  0  0
 60 61  1  0  0  0
 61 62  1  0  0  0
 14 15  1  0  0  0
 15 16  2  0  0  0
 15 17  1  0  0  0
 17 19  1  0  0  0
 19 51  1  0  0  0
 51 52  1  0  0  0
 52 53  1  0  0  0
 53 54  2  0  0  0
 53 55  1  0  0  0
 19 20  1  0  0  0
 20 21  2  0  0  0
 20 22  1  0  0  0
 22 24  1  0  0  0
 24 44  1  0  0  0
 44 45  1  0  0  0
 45 46  2  0  0  0
 46 47  1  0  0  0
 47 48  2  0  0  0
 48 49  1  0  0  0
 24 25  1  0  0  0
 25 26  2  0  0  0
 25 27  1  0  0  0
 27 29  1  0  0  0
 29 41  1  0  0  0
 41 42  1  0  0  0
 29 30  1  0  0  0
 30 31  2  0  0  0
 30 32  1  0  0  0
 32 33  1  0  0  0
 33 34  1  0  0  0
 34 35  1  0  0  0
 35 36  1  0  0  0
 36 37  1  0  0  0
 37 38  1  0  0  0
 37 39  2  0  0  0
 96 99  1  0  0  0
 99100  1  0  0  0
 99101  1  0  0  0
125121  1  0  0  0
  8  2  1  0  0  0
 49 45  1  0  0  0
 36 32  1  0  0  0
 95 97  1  0  0  0
 95 98  1  0  0  0
 93 94  1  0  0  0
107108  1  0  0  0
107109  1  0  0  0
 88 89  1  0  0  0
114115  1  0  0  0
114116  1  0  0  0
 83 84  1  0  0  0
 77 78  1  0  0  0
118119  1  0  0  0
 72 73  1  0  0  0
125126  1  0  0  0
 67 68  1  0  0  0
  6  9  1  0  0  0
 12 13  1  0  0  0
 62 63  1  0  0  0
 62 64  1  0  0  0
 17 18  1  0  0  0
 55 56  1  0  0  0
 55 57  1  0  0  0
 22 23  1  0  0  0
 49 50  1  0  0  0
 27 28  1  0  0  0
 42 43  1  0  0  0
 38 40  1  0  0  0
100102  1  0  0  0
M  END
> <minimizedAffinity>
0.35606

$$$$



126129  0  0  0  0  0  0  0  0999 V2000
   16.6274   -5.6595   14.7579 C   0  0  0  0  0  0  0  0  0  0  0  0
   17.3108   -4.3838   15.1927 C   0  0  0  0  0  0  0  0  0  0  0  0
   17.2009   -3.9186   16.5155 C   0  0  0  0  0  0  0  0  0  0  0  0
   17.8776   -2.7646   16.9174 C   0  0  0  0  0  0  0  0  0  0  0  0
   18.6568   -2.0480   16.0003 C   0  0  0  0  0  0  0  0  0  0  0  0
   19.3307   -0.8988   16.4118 O   0  0  0  0  0  0  0  0  0  0  0  0
   18.7584   -2.4950   14.6775 C   0  0  0  0  0  0  0  0  0  0  0  0
   18.0963   -3.6614   14.2803 C   0  0  0  0  0  0  0  0  0  0  0  0
   19.8638   -0.3397   15.7560 H   0  0  0  0  0  0  0  0  0  0  0  0
   17.6385   -6.7485   14.5111 C   0  0  0  0  0  0  0  0  0  0  0  0
   18.6212   -6.8957   15.2844 O   0  0  0  0  0  0  0  0  0  0  0  0
   17.5057   -7.5973   13.3628 N   0  0  0  0  0  0  0  0  0  0  0  0
   16.5431   -7.9422   13.1416 H   0  0  0  0  0  0  0  0  0  0  0  0
   18.5054   -7.7034   12.2873 C   0  0  0  0  0  0  0  0  0  0  0  0
   19.6098   -8.6339   12.7298 C   0  0  0  0  0  0  0  0  0  0  0  0
   20.8156   -8.2539   12.7087 O   0  0  0  0  0  0  0  0  0  0  0  0
   19.2831   -9.9613   13.1639 N   0  0  0  0  0  0  0  0  0  0  0  0
   18.2814  -10.1761   13.3736 H   0  0  0  0  0  0  0  0  0  0  0  0
   20.1986  -11.0888   12.9551 C   0  0  0  0  0  0  0  0  0  0  0  0
   19.5899  -12.3526   13.5133 C   0  0  0  0  0  0  0  0  0  0  0  0
   20.1173  -13.4647   13.2459 O   0  0  0  0  0  0  0  0  0  0  0  0
   18.4564  -12.2854   14.3980 N   0  0  0  0  0  0  0  0  0  0  0  0
   18.1012  -11.3323   14.6495 H   0  0  0  0  0  0  0  0  0  0  0  0
   17.9932  -13.4568   15.1605 C   0  0  0  0  0  0  0  0  0  0  0  0
   16.4880  -13.4578   15.3362 C   0  0  0  0  0  0  0  0  0  0  0  0
   15.9571  -12.6278   16.1236 O   0  0  0  0  0  0  0  0  0  0  0  0
   15.6515  -14.4690   14.7423 N   0  0  0  0  0  0  0  0  0  0  0  0
   14.8663  -14.8226   15.3389 H   0  0  0  0  0  0  0  0  0  0  0  0
   15.5789  -14.8020   13.3078 C   0  0  0  0  0  0  0  0  0  0  0  0
   15.6452  -13.5623   12.4445 C   0  0  0  0  0  0  0  0  0  0  0  0
   16.7321  -13.2241   11.9138 O   0  0  0  0  0  0  0  0  0  0  0  0
   14.5183  -12.6841   12.3191 N   0  0  0  0  0  0  0  0  0  0  0  0
   13.5584  -12.7851   11.2336 C   0  0  0  0  0  0  0  0  0  0  0  0
   12.8263  -11.4514   11.2081 C   0  0  0  0  0  0  0  0  0  0  0  0
   13.0826  -10.8168   12.5734 C   0  0  0  0  0  0  0  0  0  0  0  0
   14.3730  -11.4558   13.0896 C   0  0  0  0  0  0  0  0  0  0  0  0
   15.5514  -10.5444   12.8817 C   0  0  0  0  0  0  0  0  0  0  0  0
   16.4501  -10.3365   13.9182 O   0  0  0  0  0  0  0  0  0  0  0  0
   15.7058   -9.9468   11.7828 O   0  0  0  0  0  0  0  0  0  0  0  0
   17.2415   -9.7151   13.8036 H   0  0  0  0  0  0  0  0  0  0  0  0
   16.6356  -15.8590   12.9268 C   0  0  0  0  0  0  0  0  0  0  0  0
   16.1294  -16.8424   11.4753 S   0  0  0  0  0  0  0  0  0  0  0  0
   15.9958  -15.7446   10.6125 H   0  0  0  0  0  0  0  0  0  0  0  0
   18.7087  -13.5052   16.5279 C   0  0  0  0  0  0  0  0  0  0  0  0
   19.8253  -14.5168   16.5626 C   0  0  0  0  0  0  0  0  0  0  0  0
   20.7370  -14.6965   17.5777 C   0  0  0  0  0  0  0  0  0  0  0  0
   21.6017  -15.6687   17.2290 N   0  0  0  0  0  0  0  0  0  0  0  0
   21.1981  -16.0498   15.9980 C   0  0  0  0  0  0  0  0  0  0  0  0
   20.1211  -15.3692   15.5655 N   0  0  0  0  0  0  0  0  0  0  0  0
   19.6510  -15.4535   14.6369 H   0  0  0  0  0  0  0  0  0  0  0  0
   20.4866  -11.2655   11.4490 C   0  0  0  0  0  0  0  0  0  0  0  0
   21.9703  -11.0486   11.1058 C   0  0  0  0  0  0  0  0  0  0  0  0
   22.8229  -12.1612   11.6502 C   0  0  0  0  0  0  0  0  0  0  0  0
   23.8230  -11.8917   12.3677 O   0  0  0  0  0  0  0  0  0  0  0  0
   22.5127  -13.5238   11.3516 N   0  0  0  0  0  0  0  0  0  0  0  0
   23.0795  -14.2969   11.7662 H   0  0  0  0  0  0  0  0  0  0  0  0
   21.7277  -13.7707   10.7100 H   0  0  0  0  0  0  0  0  0  0  0  0
   19.0412   -6.3301   11.8084 C   0  0  0  0  0  0  0  0  0  0  0  0
   17.9890   -5.5284   11.0231 C   0  0  0  0  0  0  0  0  0  0  0  0
   16.9933   -6.4246   10.2648 C   0  0  0  0  0  0  0  0  0  0  0  0
   15.5071   -6.1662   10.5897 C   0  0  0  0  0  0  0  0  0  0  0  0
   15.0236   -6.9852   11.7040 N   0  0  0  0  0  0  0  0  0  0  0  0
   15.4565   -6.6374   12.5926 H   0  0  0  0  0  0  0  0  0  0  0  0
   15.3290   -7.9700   11.5629 H   0  0  0  0  0  0  0  0  0  0  0  0
   15.0882   -7.3954   15.7196 C   0  0  0  0  0  0  0  0  0  0  0  0
   14.6481   -7.8644   14.6362 O   0  0  0  0  0  0  0  0  0  0  0  0
   15.6375   -6.0758   15.7562 N   0  0  0  0  0  0  0  0  0  0  0  0
   15.4598   -5.4783   16.5971 H   0  0  0  0  0  0  0  0  0  0  0  0
   15.2371   -8.2851   16.9190 C   0  0  0  0  0  0  0  0  0  0  0  0
   17.4378   -9.5664   17.0150 C   0  0  0  0  0  0  0  0  0  0  0  0
   18.3036  -10.0613   16.2361 O   0  0  0  0  0  0  0  0  0  0  0  0
   16.0878   -9.4174   16.5431 N   0  0  0  0  0  0  0  0  0  0  0  0
   15.8411   -9.9429   15.6768 H   0  0  0  0  0  0  0  0  0  0  0  0
   17.8052   -9.2373   18.4466 C   0  0  0  0  0  0  0  0  0  0  0  0
   19.3592   -7.6481   19.6624 C   0  0  0  0  0  0  0  0  0  0  0  0
   18.4048   -7.1846   20.3458 O   0  0  0  0  0  0  0  0  0  0  0  0
   19.0800   -8.5121   18.5484 N   0  0  0  0  0  0  0  0  0  0  0  0
   19.8294   -8.6449   17.8356 H   0  0  0  0  0  0  0  0  0  0  0  0
   20.7919   -7.3236   20.0137 C   0  0  0  0  0  0  0  0  0  0  0  0
   20.8191   -6.2106   21.0606 C   0  0  0  0  0  0  0  0  0  0  0  0
   21.1367   -5.9267   17.9028 C   0  0  0  0  0  0  0  0  0  0  0  0
   19.9700   -5.4557   17.9849 O   0  0  0  0  0  0  0  0  0  0  0  0
   21.5804   -6.9296   18.8332 N   0  0  0  0  0  0  0  0  0  0  0  0
   22.5205   -7.3447   18.6608 H   0  0  0  0  0  0  0  0  0  0  0  0
   22.0624   -5.4306   16.8194 C   0  0  0  0  0  0  0  0  0  0  0  0
   24.5378   -5.6697   16.3183 C   0  0  0  0  0  0  0  0  0  0  0  0
   25.3790   -4.7295   16.2669 O   0  0  0  0  0  0  0  0  0  0  0  0
   23.4559   -5.5764   17.2524 N   0  0  0  0  0  0  0  0  0  0  0  0
   23.7004   -5.1907   18.1869 H   0  0  0  0  0  0  0  0  0  0  0  0
   24.8049   -6.9233   15.5018 C   0  0  0  0  0  0  0  0  0  0  0  0
   23.3088   -8.9352   15.6779 C   0  0  0  0  0  0  0  0  0  0  0  0
   23.3470   -9.3269   14.4789 O   0  0  0  0  0  0  0  0  0  0  0  0
   24.3829   -8.1426   16.1949 N   0  0  0  0  0  0  0  0  0  0  0  0
   24.8823   -8.4752   17.0472 H   0  0  0  0  0  0  0  0  0  0  0  0
   20.8658   -8.9255   15.7851 N   0  0  0  0  0  0  0  0  0  0  0  0
   22.0940   -9.2202   16.5355 C   0  0  0  0  0  0  0  0  0  0  0  0
   20.0528   -9.0056   16.4400 H   0  0  0  0  0  0  0  0  0  0  0  0
   20.8911   -7.9245   15.4862 H   0  0  0  0  0  0  0  0  0  0  0  0
   22.0963  -10.6707   17.0670 C   0  0  0  0  0  0  0  0  0  0  0  0
   20.8749  -10.9144   17.7258 O   0  0  0  0  0  0  0  0  0  0  0  0
   22.2868  -11.7077   15.9511 C   0  0  0  0  0  0  0  0  0  0  0  0
   20.9990  -11.7356   18.2666 H   0  0  0  0  0  0  0  0  0  0  0  0
   26.2806   -7.0157   15.0763 C   0  0  0  0  0  0  0  0  0  0  0  0
   26.5081   -6.8393   13.5643 C   0  0  0  0  0  0  0  0  0  0  0  0
   27.0820   -5.4864   13.2265 C   0  0  0  0  0  0  0  0  0  0  0  0
   28.2701   -5.3620   12.8297 O   0  0  0  0  0  0  0  0  0  0  0  0
   26.2622   -4.3250   13.3421 N   0  0  0  0  0  0  0  0  0  0  0  0
   26.6410   -3.3865   13.0938 H   0  0  0  0  0  0  0  0  0  0  0  0
   25.2590   -4.4066   13.6294 H   0  0  0  0  0  0  0  0  0  0  0  0
   21.7784   -3.9843   16.3138 C   0  0  0  0  0  0  0  0  0  0  0  0
   22.4560   -2.8152   17.0587 C   0  0  0  0  0  0  0  0  0  0  0  0
   22.0454   -2.5994   18.4974 C   0  0  0  0  0  0  0  0  0  0  0  0
   22.7115   -3.1680   19.3986 O   0  0  0  0  0  0  0  0  0  0  0  0
   20.9084   -1.8166   18.8763 N   0  0  0  0  0  0  0  0  0  0  0  0
   20.2098   -1.4682   18.1882 H   0  0  0  0  0  0  0  0  0  0  0  0
   20.6910   -1.6758   19.8913 H   0  0  0  0  0  0  0  0  0  0  0  0
   17.8538  -10.5403   19.2715 C   0  0  0  0  0  0  0  0  0  0  0  0
   17.0460  -11.5328   18.6896 O   0  0  0  0  0  0  0  0  0  0  0  0
   17.6151  -12.0038   18.0219 H   0  0  0  0  0  0  0  0  0  0  0  0
   13.8749   -8.7722   17.4463 C   0  0  0  0  0  0  0  0  0  0  0  0
   14.0565   -9.6207   18.6730 C   0  0  0  0  0  0  0  0  0  0  0  0
   13.7722  -10.9697   18.7790 C   0  0  0  0  0  0  0  0  0  0  0  0
   14.0017  -11.3693   20.0470 N   0  0  0  0  0  0  0  0  0  0  0  0
   14.4224  -10.2499   20.6806 C   0  0  0  0  0  0  0  0  0  0  0  0
   14.4736   -9.1747   19.8672 N   0  0  0  0  0  0  0  0  0  0  0  0
   14.7432   -8.2024   20.1308 H   0  0  0  0  0  0  0  0  0  0  0  0
 95 96  1  0  0  0
 96 91  1  0  0  0
 91 92  2  0  0  0
 91 93  1  0  0  0
 93 90  1  0  0  0
 90103  1  0  0  0
103104  1  0  0  0
104105  1  0  0  0
105106  2  0  0  0
105107  1  0  0  0
 90 86  1  0  0  0
 86 87  2  0  0  0
 86 88  1  0  0  0
 88 85  1  0  0  0
 85110  1  0  0  0
110111  1  0  0  0
111112  1  0  0  0
112113  2  0  0  0
112114  1  0  0  0
 85 81  1  0  0  0
 81 82  2  0  0  0
 81 83  1  0  0  0
 83 79  1  0  0  0
 79 80  1  0  0  0
 79 75  1  0  0  0
 75 76  2  0  0  0
 75 77  1  0  0  0
 77 74  1  0  0  0
 74117  1  0  0  0
117118  1  0  0  0
 74 70  1  0  0  0
 70 71  2  0  0  0
 70 72  1  0  0  0
 72 69  1  0  0  0
 69120  1  0  0  0
120121  1  0  0  0
121122  2  0  0  0
122123  1  0  0  0
123124  2  0  0  0
124125  1  0  0  0
 69 65  1  0  0  0
 65 66  2  0  0  0
 65 67  1  0  0  0
 67  1  1  0  0  0
  1  2  1  0  0  0
  2  3  2  0  0  0
  3  4  1  0  0  0
  4  5  2  0  0  0
  5  6  1  0  0  0
  5  7  1  0  0  0
  7  8  2  0  0  0
  1 10  1  0  0  0
 10 11  2  0  0  0
 10 12  1  0  0  0
 12 14  1  0  0  0
 14 58  1  0  0  0
 58 59  1  0  0  0
 59 60  1  0  0  0
 60 61  1  0  0  0
 61 62  1  0  0  0
 14 15  1  0  0  0
 15 16  2  0  0  0
 15 17  1  0  0  0
 17 19  1  0  0  0
 19 51  1  0  0  0
 51 52  1  0  0  0
 52 53  1  0  0  0
 53 54  2  0  0  0
 53 55  1  0  0  0
 19 20  1  0  0  0
 20 21  2  0  0  0
 20 22  1  0  0  0
 22 24  1  0  0  0
 24 44  1  0  0  0
 44 45  1  0  0  0
 45 46  2  0  0  0
 46 47  1  0  0  0
 47 48  2  0  0  0
 48 49  1  0  0  0
 24 25  1  0  0  0
 25 26  2  0  0  0
 25 27  1  0  0  0
 27 29  1  0  0  0
 29 41  1  0  0  0
 41 42  1  0  0  0
 29 30  1  0  0  0
 30 31  2  0  0  0
 30 32  1  0  0  0
 32 33  1  0  0  0
 33 34  1  0  0  0
 34 35  1  0  0  0
 35 36  1  0  0  0
 36 37  1  0  0  0
 37 38  1  0  0  0
 37 39  2  0  0  0
 96 99  1  0  0  0
 99100  1  0  0  0
 99101  1  0  0  0
125121  1  0  0  0
  8  2  1  0  0  0
 49 45  1  0  0  0
 36 32  1  0  0  0
 95 97  1  0  0  0
 95 98  1  0  0  0
 93 94  1  0  0  0
107108  1  0  0  0
107109  1  0  0  0
 88 89  1  0  0  0
114115  1  0  0  0
114116  1  0  0  0
 83 84  1  0  0  0
 77 78  1  0  0  0
118119  1  0  0  0
 72 73  1  0  0  0
125126  1  0  0  0
 67 68  1  0  0  0
  6  9  1  0  0  0
 12 13  1  0  0  0
 62 63  1  0  0  0
 62 64  1  0  0  0
 17 18  1  0  0  0
 55 56  1  0  0  0
 55 57  1  0  0  0
 22 23  1  0  0  0
 49 50  1  0  0  0
 27 28  1  0  0  0
 42 43  1  0  0  0
 38 40  1  0  0  0
100102  1  0  0  0
M  END
> <minimizedAffinity>
0.36311

$$$$



126129  0  0  0  0  0  0  0  0999 V2000
   26.0628   36.7017   -3.9022 C   0  0  0  0  0  0  0  0  0  0  0  0
   25.1384   35.8857   -4.7758 C   0  0  0  0  0  0  0  0  0  0  0  0
   24.1797   36.5087   -5.5950 C   0  0  0  0  0  0  0  0  0  0  0  0
   23.3646   35.7459   -6.4347 C   0  0  0  0  0  0  0  0  0  0  0  0
   23.4809   34.3503   -6.4536 C   0  0  0  0  0  0  0  0  0  0  0  0
   22.6647   33.5979   -7.2973 O   0  0  0  0  0  0  0  0  0  0  0  0
   24.4213   33.7210   -5.6292 C   0  0  0  0  0  0  0  0  0  0  0  0
   25.2507   34.4865   -4.8030 C   0  0  0  0  0  0  0  0  0  0  0  0
   22.6998   32.5851   -7.2956 H   0  0  0  0  0  0  0  0  0  0  0  0
   27.5018   36.4582   -4.2754 C   0  0  0  0  0  0  0  0  0  0  0  0
   27.8469   36.3952   -5.4847 O   0  0  0  0  0  0  0  0  0  0  0  0
   28.4798   36.2532   -3.2467 N   0  0  0  0  0  0  0  0  0  0  0  0
   28.4252   36.8833   -2.4134 H   0  0  0  0  0  0  0  0  0  0  0  0
   29.2794   35.0268   -3.0923 C   0  0  0  0  0  0  0  0  0  0  0  0
   28.4305   33.9631   -2.4371 C   0  0  0  0  0  0  0  0  0  0  0  0
   27.4013   34.2814   -1.7752 O   0  0  0  0  0  0  0  0  0  0  0  0
   28.8071   32.5845   -2.5596 N   0  0  0  0  0  0  0  0  0  0  0  0
   29.5252   32.3342   -3.2774 H   0  0  0  0  0  0  0  0  0  0  0  0
   28.5283   31.6110   -1.4976 C   0  0  0  0  0  0  0  0  0  0  0  0
   27.2883   30.8208   -1.8403 C   0  0  0  0  0  0  0  0  0  0  0  0
   27.2581   30.1456   -2.9031 O   0  0  0  0  0  0  0  0  0  0  0  0
   26.1740   30.7840   -0.9298 N   0  0  0  0  0  0  0  0  0  0  0  0
   26.2778   31.3015   -0.0247 H   0  0  0  0  0  0  0  0  0  0  0  0
   25.0611   29.8347   -1.0992 C   0  0  0  0  0  0  0  0  0  0  0  0
   23.8938   30.1643   -0.1908 C   0  0  0  0  0  0  0  0  0  0  0  0
   23.9863   29.9287    1.0447 O   0  0  0  0  0  0  0  0  0  0  0  0
   22.6250   30.6073   -0.7097 N   0  0  0  0  0  0  0  0  0  0  0  0
   21.7753   30.2120   -0.2413 H   0  0  0  0  0  0  0  0  0  0  0  0
   22.4038   31.7795   -1.5762 C   0  0  0  0  0  0  0  0  0  0  0  0
   23.2932   32.9378   -1.1835 C   0  0  0  0  0  0  0  0  0  0  0  0
   24.3414   33.1731   -1.8340 O   0  0  0  0  0  0  0  0  0  0  0  0
   23.0349   33.7031    0.0016 N   0  0  0  0  0  0  0  0  0  0  0  0
   22.2719   34.9391   -0.0101 C   0  0  0  0  0  0  0  0  0  0  0  0
   22.6092   35.6417    1.2968 C   0  0  0  0  0  0  0  0  0  0  0  0
   23.1940   34.5613    2.2040 C   0  0  0  0  0  0  0  0  0  0  0  0
   23.7252   33.4770    1.2649 C   0  0  0  0  0  0  0  0  0  0  0  0
   25.2155   33.5884    1.0944 C   0  0  0  0  0  0  0  0  0  0  0  0
   25.7573   34.7264    0.5142 O   0  0  0  0  0  0  0  0  0  0  0  0
   25.9675   32.6405    1.4471 O   0  0  0  0  0  0  0  0  0  0  0  0
   26.7567   34.8147    0.3768 H   0  0  0  0  0  0  0  0  0  0  0  0
   22.5282   31.4024   -3.0665 C   0  0  0  0  0  0  0  0  0  0  0  0
   21.2304   32.1857   -4.0827 S   0  0  0  0  0  0  0  0  0  0  0  0
   21.5674   33.5021   -3.7349 H   0  0  0  0  0  0  0  0  0  0  0  0
   25.5620   28.3949   -0.8542 C   0  0  0  0  0  0  0  0  0  0  0  0
   25.2271   27.4632   -1.9905 C   0  0  0  0  0  0  0  0  0  0  0  0
   24.5099   26.2917   -1.9054 C   0  0  0  0  0  0  0  0  0  0  0  0
   24.4509   25.7197   -3.1235 N   0  0  0  0  0  0  0  0  0  0  0  0
   25.1480   26.5572   -3.9209 C   0  0  0  0  0  0  0  0  0  0  0  0
   25.6320   27.6261   -3.2625 N   0  0  0  0  0  0  0  0  0  0  0  0
   26.2324   28.3881   -3.6488 H   0  0  0  0  0  0  0  0  0  0  0  0
   29.7288   30.6562   -1.3258 C   0  0  0  0  0  0  0  0  0  0  0  0
   29.5409   29.6831   -0.1493 C   0  0  0  0  0  0  0  0  0  0  0  0
   29.6083   28.2532   -0.6098 C   0  0  0  0  0  0  0  0  0  0  0  0
   30.0310   27.3612    0.1733 O   0  0  0  0  0  0  0  0  0  0  0  0
   29.2050   27.8991   -1.9341 N   0  0  0  0  0  0  0  0  0  0  0  0
   29.2108   26.8999   -2.2380 H   0  0  0  0  0  0  0  0  0  0  0  0
   28.9102   28.6268   -2.6215 H   0  0  0  0  0  0  0  0  0  0  0  0
   30.6210   35.2569   -2.3508 C   0  0  0  0  0  0  0  0  0  0  0  0
   30.4319   35.4476   -0.8361 C   0  0  0  0  0  0  0  0  0  0  0  0
   30.6074   36.9098   -0.3878 C   0  0  0  0  0  0  0  0  0  0  0  0
   29.2926   37.6651   -0.1018 C   0  0  0  0  0  0  0  0  0  0  0  0
   28.1146   36.7987   -0.1902 N   0  0  0  0  0  0  0  0  0  0  0  0
   28.1159   36.1412    0.6257 H   0  0  0  0  0  0  0  0  0  0  0  0
   28.1724   36.2300   -1.0599 H   0  0  0  0  0  0  0  0  0  0  0  0
   26.3467   39.0695   -3.1147 C   0  0  0  0  0  0  0  0  0  0  0  0
   26.3880   38.8425   -1.8761 O   0  0  0  0  0  0  0  0  0  0  0  0
   25.7285   38.1264   -3.9938 N   0  0  0  0  0  0  0  0  0  0  0  0
   25.1765   38.4826   -4.8086 H   0  0  0  0  0  0  0  0  0  0  0  0
   27.1266   40.2121   -3.6965 C   0  0  0  0  0  0  0  0  0  0  0  0
   29.5277   39.4222   -4.0197 C   0  0  0  0  0  0  0  0  0  0  0  0
   30.4175   38.7580   -3.4125 O   0  0  0  0  0  0  0  0  0  0  0  0
   28.5159   40.0905   -3.2471 N   0  0  0  0  0  0  0  0  0  0  0  0
   28.7064   40.1924   -2.2268 H   0  0  0  0  0  0  0  0  0  0  0  0
   29.5980   39.5870   -5.5232 C   0  0  0  0  0  0  0  0  0  0  0  0
   29.6900   38.0719   -7.5517 C   0  0  0  0  0  0  0  0  0  0  0  0
   28.6491   38.5984   -8.0337 O   0  0  0  0  0  0  0  0  0  0  0  0
   30.0773   38.3736   -6.2010 N   0  0  0  0  0  0  0  0  0  0  0  0
   30.7470   37.7273   -5.7308 H   0  0  0  0  0  0  0  0  0  0  0  0
   30.5453   37.1458   -8.3836 C   0  0  0  0  0  0  0  0  0  0  0  0
   30.3593   37.4749   -9.8643 C   0  0  0  0  0  0  0  0  0  0  0  0
   30.7221   35.0157   -6.9846 C   0  0  0  0  0  0  0  0  0  0  0  0
   31.5693   35.5503   -6.2189 O   0  0  0  0  0  0  0  0  0  0  0  0
   30.2355   35.7270   -8.1359 N   0  0  0  0  0  0  0  0  0  0  0  0
   29.6063   35.2015   -8.7792 H   0  0  0  0  0  0  0  0  0  0  0  0
   30.2248   33.6233   -6.6836 C   0  0  0  0  0  0  0  0  0  0  0  0
   27.9909   32.4582   -6.3864 C   0  0  0  0  0  0  0  0  0  0  0  0
   27.4634   32.1339   -5.2860 O   0  0  0  0  0  0  0  0  0  0  0  0
   28.7777   33.6536   -6.4478 N   0  0  0  0  0  0  0  0  0  0  0  0
   28.4053   34.4651   -5.9143 H   0  0  0  0  0  0  0  0  0  0  0  0
   27.6332   31.6524   -7.6242 C   0  0  0  0  0  0  0  0  0  0  0  0
   27.1330   33.6686   -9.0390 C   0  0  0  0  0  0  0  0  0  0  0  0
   28.2497   33.8017   -9.6115 O   0  0  0  0  0  0  0  0  0  0  0  0
   26.7491   32.3859   -8.5328 N   0  0  0  0  0  0  0  0  0  0  0  0
   25.8504   31.9702   -8.8583 H   0  0  0  0  0  0  0  0  0  0  0  0
   27.0036   35.9314   -8.1209 N   0  0  0  0  0  0  0  0  0  0  0  0
   26.2471   34.8739   -8.8048 C   0  0  0  0  0  0  0  0  0  0  0  0
   26.3372   36.6946   -7.8569 H   0  0  0  0  0  0  0  0  0  0  0  0
   27.3679   35.5491   -7.2192 H   0  0  0  0  0  0  0  0  0  0  0  0
   25.6213   35.3883  -10.1203 C   0  0  0  0  0  0  0  0  0  0  0  0
   25.7182   34.3756  -11.0950 O   0  0  0  0  0  0  0  0  0  0  0  0
   24.1499   35.7941   -9.9546 C   0  0  0  0  0  0  0  0  0  0  0  0
   25.5531   34.8050  -11.9729 H   0  0  0  0  0  0  0  0  0  0  0  0
   27.0295   30.2867   -7.2533 C   0  0  0  0  0  0  0  0  0  0  0  0
   25.5686   30.1053   -7.7026 C   0  0  0  0  0  0  0  0  0  0  0  0
   24.6056   30.1361   -6.5426 C   0  0  0  0  0  0  0  0  0  0  0  0
   24.9780   29.8398   -5.3773 O   0  0  0  0  0  0  0  0  0  0  0  0
   23.2505   30.5228   -6.7625 N   0  0  0  0  0  0  0  0  0  0  0  0
   22.5797   30.5662   -5.9662 H   0  0  0  0  0  0  0  0  0  0  0  0
   22.9266   30.8142   -7.7142 H   0  0  0  0  0  0  0  0  0  0  0  0
   30.9680   32.8876   -5.5283 C   0  0  0  0  0  0  0  0  0  0  0  0
   31.6158   31.5230   -5.8431 C   0  0  0  0  0  0  0  0  0  0  0  0
   30.6934   30.3259   -5.8743 C   0  0  0  0  0  0  0  0  0  0  0  0
   30.6727   29.6167   -6.9114 O   0  0  0  0  0  0  0  0  0  0  0  0
   29.8116   29.9909   -4.7975 N   0  0  0  0  0  0  0  0  0  0  0  0
   29.6415   30.6256   -3.9905 H   0  0  0  0  0  0  0  0  0  0  0  0
   29.2179   29.1303   -4.8623 H   0  0  0  0  0  0  0  0  0  0  0  0
   30.5015   40.7911   -5.8611 C   0  0  0  0  0  0  0  0  0  0  0  0
   30.9031   41.4605   -4.6921 O   0  0  0  0  0  0  0  0  0  0  0  0
   31.7298   41.0043   -4.3757 H   0  0  0  0  0  0  0  0  0  0  0  0
   26.5358   41.5758   -3.2936 C   0  0  0  0  0  0  0  0  0  0  0  0
   25.1716   41.7589   -3.8961 C   0  0  0  0  0  0  0  0  0  0  0  0
   23.9985   41.9871   -3.2006 C   0  0  0  0  0  0  0  0  0  0  0  0
   22.9713   42.0338   -4.0740 N   0  0  0  0  0  0  0  0  0  0  0  0
   23.5484   41.8337   -5.2816 C   0  0  0  0  0  0  0  0  0  0  0  0
   24.8856   41.6727   -5.2037 N   0  0  0  0  0  0  0  0  0  0  0  0
   25.5405   41.4831   -5.9928 H   0  0  0  0  0  0  0  0  0  0  0  0
 95 96  1  0  0  0
 96 91  1  0  0  0
 91 92  2  0  0  0
 91 93  1  0  0  0
 93 90  1  0  0  0
 90103  1  0  0  0
103104  1  0  0  0
104105  1  0  0  0
105106  2  0  0  0
105107  1  0  0  0
 90 86  1  0  0  0
 86 87  2  0  0  0
 86 88  1  0  0  0
 88 85  1  0  0  0
 85110  1  0  0  0
110111  1  0  0  0
111112  1  0  0  0
112113  2  0  0  0
112114  1  0  0  0
 85 81  1  0  0  0
 81 82  2  0  0  0
 81 83  1  0  0  0
 83 79  1  0  0  0
 79 80  1  0  0  0
 79 75  1  0  0  0
 75 76  2  0  0  0
 75 77  1  0  0  0
 77 74  1  0  0  0
 74117  1  0  0  0
117118  1  0  0  0
 74 70  1  0  0  0
 70 71  2  0  0  0
 70 72  1  0  0  0
 72 69  1  0  0  0
 69120  1  0  0  0
120121  1  0  0  0
121122  2  0  0  0
122123  1  0  0  0
123124  2  0  0  0
124125  1  0  0  0
 69 65  1  0  0  0
 65 66  2  0  0  0
 65 67  1  0  0  0
 67  1  1  0  0  0
  1  2  1  0  0  0
  2  3  2  0  0  0
  3  4  1  0  0  0
  4  5  2  0  0  0
  5  6  1  0  0  0
  5  7  1  0  0  0
  7  8  2  0  0  0
  1 10  1  0  0  0
 10 11  2  0  0  0
 10 12  1  0  0  0
 12 14  1  0  0  0
 14 58  1  0  0  0
 58 59  1  0  0  0
 59 60  1  0  0  0
 60 61  1  0  0  0
 61 62  1  0  0  0
 14 15  1  0  0  0
 15 16  2  0  0  0
 15 17  1  0  0  0
 17 19  1  0  0  0
 19 51  1  0  0  0
 51 52  1  0  0  0
 52 53  1  0  0  0
 53 54  2  0  0  0
 53 55  1  0  0  0
 19 20  1  0  0  0
 20 21  2  0  0  0
 20 22  1  0  0  0
 22 24  1  0  0  0
 24 44  1  0  0  0
 44 45  1  0  0  0
 45 46  2  0  0  0
 46 47  1  0  0  0
 47 48  2  0  0  0
 48 49  1  0  0  0
 24 25  1  0  0  0
 25 26  2  0  0  0
 25 27  1  0  0  0
 27 29  1  0  0  0
 29 41  1  0  0  0
 41 42  1  0  0  0
 29 30  1  0  0  0
 30 31  2  0  0  0
 30 32  1  0  0  0
 32 33  1  0  0  0
 33 34  1  0  0  0
 34 35  1  0  0  0
 35 36  1  0  0  0
 36 37  1  0  0  0
 37 38  1  0  0  0
 37 39  2  0  0  0
 96 99  1  0  0  0
 99100  1  0  0  0
 99101  1  0  0  0
125121  1  0  0  0
  8  2  1  0  0  0
 49 45  1  0  0  0
 36 32  1  0  0  0
 95 97  1  0  0  0
 95 98  1  0  0  0
 93 94  1  0  0  0
107108  1  0  0  0
107109  1  0  0  0
 88 89  1  0  0  0
114115  1  0  0  0
114116  1  0  0  0
 83 84  1  0  0  0
 77 78  1  0  0  0
118119  1  0  0  0
 72 73  1  0  0  0
125126  1  0  0  0
 67 68  1  0  0  0
  6  9  1  0  0  0
 12 13  1  0  0  0
 62 63  1  0  0  0
 62 64  1  0  0  0
 17 18  1  0  0  0
 55 56  1  0  0  0
 55 57  1  0  0  0
 22 23  1  0  0  0
 49 50  1  0  0  0
 27 28  1  0  0  0
 42 43  1  0  0  0
 38 40  1  0  0  0
100102  1  0  0  0
M  END
> <minimizedAffinity>
0.37008

$$$$
