


126129  0  0  0  0  0  0  0  0999 V2000
   26.6981  -11.5616   49.2610 C   0  0  0  0  0  0  0  0  0  0  0  0
   27.8978  -12.3414   49.7472 C   0  0  0  0  0  0  0  0  0  0  0  0
   29.2056  -11.9158   49.4519 C   0  0  0  0  0  0  0  0  0  0  0  0
   30.3063  -12.6179   49.9487 C   0  0  0  0  0  0  0  0  0  0  0  0
   30.1175  -13.7651   50.7297 C   0  0  0  0  0  0  0  0  0  0  0  0
   31.2227  -14.4574   51.2233 O   0  0  0  0  0  0  0  0  0  0  0  0
   28.8193  -14.2049   51.0146 C   0  0  0  0  0  0  0  0  0  0  0  0
   27.7173  -13.4905   50.5333 C   0  0  0  0  0  0  0  0  0  0  0  0
   31.1118  -15.3143   51.7526 H   0  0  0  0  0  0  0  0  0  0  0  0
   25.7801  -12.4433   48.4554 C   0  0  0  0  0  0  0  0  0  0  0  0
   25.2615  -12.0210   47.3886 O   0  0  0  0  0  0  0  0  0  0  0  0
   25.4591  -13.7586   48.9284 N   0  0  0  0  0  0  0  0  0  0  0  0
   26.2477  -14.3227   49.3212 H   0  0  0  0  0  0  0  0  0  0  0  0
   24.0980  -14.2162   49.2529 C   0  0  0  0  0  0  0  0  0  0  0  0
   24.1787  -15.5626   49.9327 C   0  0  0  0  0  0  0  0  0  0  0  0
   24.6622  -16.5602   49.3247 O   0  0  0  0  0  0  0  0  0  0  0  0
   23.6899  -15.7070   51.2735 N   0  0  0  0  0  0  0  0  0  0  0  0
   23.4971  -14.8375   51.8215 H   0  0  0  0  0  0  0  0  0  0  0  0
   23.1006  -16.9639   51.7489 C   0  0  0  0  0  0  0  0  0  0  0  0
   24.1912  -17.8918   52.2273 C   0  0  0  0  0  0  0  0  0  0  0  0
   24.3282  -19.0194   51.6830 O   0  0  0  0  0  0  0  0  0  0  0  0
   25.1102  -17.4680   53.2510 N   0  0  0  0  0  0  0  0  0  0  0  0
   25.0009  -16.4931   53.6189 H   0  0  0  0  0  0  0  0  0  0  0  0
   26.3307  -18.2295   53.5654 C   0  0  0  0  0  0  0  0  0  0  0  0
   26.1203  -19.1802   54.7266 C   0  0  0  0  0  0  0  0  0  0  0  0
   26.9749  -20.0800   54.9514 O   0  0  0  0  0  0  0  0  0  0  0  0
   24.9045  -19.1831   55.4994 N   0  0  0  0  0  0  0  0  0  0  0  0
   24.5353  -20.1257   55.7691 H   0  0  0  0  0  0  0  0  0  0  0  0
   24.3299  -18.0300   56.2165 C   0  0  0  0  0  0  0  0  0  0  0  0
   23.0335  -18.3926   56.9052 C   0  0  0  0  0  0  0  0  0  0  0  0
   23.0539  -19.0401   57.9812 O   0  0  0  0  0  0  0  0  0  0  0  0
   21.7661  -18.1248   56.2898 N   0  0  0  0  0  0  0  0  0  0  0  0
   20.9971  -16.9229   56.5617 C   0  0  0  0  0  0  0  0  0  0  0  0
   19.5807  -17.2283   56.0971 C   0  0  0  0  0  0  0  0  0  0  0  0
   19.7065  -18.4265   55.1586 C   0  0  0  0  0  0  0  0  0  0  0  0
   21.0046  -19.1296   55.5590 C   0  0  0  0  0  0  0  0  0  0  0  0
   20.7282  -20.3312   56.4204 C   0  0  0  0  0  0  0  0  0  0  0  0
   19.9490  -20.1944   57.5603 O   0  0  0  0  0  0  0  0  0  0  0  0
   21.2272  -21.4509   56.1274 O   0  0  0  0  0  0  0  0  0  0  0  0
   19.7635  -20.9877   58.1618 H   0  0  0  0  0  0  0  0  0  0  0  0
   25.3627  -17.3962   57.1707 C   0  0  0  0  0  0  0  0  0  0  0  0
   25.5899  -15.6142   56.8495 S   0  0  0  0  0  0  0  0  0  0  0  0
   24.2458  -15.2706   57.0563 H   0  0  0  0  0  0  0  0  0  0  0  0
   27.4935  -17.2554   53.8532 C   0  0  0  0  0  0  0  0  0  0  0  0
   28.6655  -17.4622   52.9285 C   0  0  0  0  0  0  0  0  0  0  0  0
   29.9517  -17.0126   53.1226 C   0  0  0  0  0  0  0  0  0  0  0  0
   30.7067  -17.3609   52.0628 N   0  0  0  0  0  0  0  0  0  0  0  0
   29.8523  -18.0073   51.2409 C   0  0  0  0  0  0  0  0  0  0  0  0
   28.6047  -18.0858   51.7386 N   0  0  0  0  0  0  0  0  0  0  0  0
   27.7644  -18.4985   51.2762 H   0  0  0  0  0  0  0  0  0  0  0  0
   22.1088  -16.6829   52.8977 C   0  0  0  0  0  0  0  0  0  0  0  0
   21.7225  -15.1967   52.9891 C   0  0  0  0  0  0  0  0  0  0  0  0
   20.2341  -15.0285   53.1214 C   0  0  0  0  0  0  0  0  0  0  0  0
   19.7686  -14.1009   53.8359 O   0  0  0  0  0  0  0  0  0  0  0  0
   19.3420  -15.9202   52.4497 N   0  0  0  0  0  0  0  0  0  0  0  0
   18.3092  -15.7756   52.5070 H   0  0  0  0  0  0  0  0  0  0  0  0
   19.7014  -16.7330   51.9028 H   0  0  0  0  0  0  0  0  0  0  0  0
   23.1442  -14.2234   48.0312 C   0  0  0  0  0  0  0  0  0  0  0  0
   21.9417  -15.1625   48.2280 C   0  0  0  0  0  0  0  0  0  0  0  0
   20.7368  -14.4664   48.8863 C   0  0  0  0  0  0  0  0  0  0  0  0
   19.8722  -13.6189   47.9295 C   0  0  0  0  0  0  0  0  0  0  0  0
   19.6310  -12.2662   48.4375 N   0  0  0  0  0  0  0  0  0  0  0  0
   20.5250  -11.7218   48.3887 H   0  0  0  0  0  0  0  0  0  0  0  0
   19.3438  -12.3216   49.4363 H   0  0  0  0  0  0  0  0  0  0  0  0
   25.1265   -9.8342   50.1847 C   0  0  0  0  0  0  0  0  0  0  0  0
   25.5271   -8.8486   49.5097 O   0  0  0  0  0  0  0  0  0  0  0  0
   25.9887  -10.9559   50.3921 N   0  0  0  0  0  0  0  0  0  0  0  0
   25.9692  -11.4428   51.3184 H   0  0  0  0  0  0  0  0  0  0  0  0
   23.6847   -9.9330   50.5889 C   0  0  0  0  0  0  0  0  0  0  0  0
   23.4332  -11.2391   52.7626 C   0  0  0  0  0  0  0  0  0  0  0  0
   23.9456  -12.2298   53.3605 O   0  0  0  0  0  0  0  0  0  0  0  0
   23.5038  -11.1856   51.3275 N   0  0  0  0  0  0  0  0  0  0  0  0
   23.7568  -12.0745   50.8443 H   0  0  0  0  0  0  0  0  0  0  0  0
   22.6740  -10.1897   53.5466 C   0  0  0  0  0  0  0  0  0  0  0  0
   23.2856   -9.2760   55.8292 C   0  0  0  0  0  0  0  0  0  0  0  0
   23.9394   -8.3286   55.3117 O   0  0  0  0  0  0  0  0  0  0  0  0
   22.8232  -10.3548   54.9999 N   0  0  0  0  0  0  0  0  0  0  0  0
   22.5524  -11.2466   55.4675 H   0  0  0  0  0  0  0  0  0  0  0  0
   22.9647   -9.2795   57.3050 C   0  0  0  0  0  0  0  0  0  0  0  0
   22.4224  -10.6513   57.7042 C   0  0  0  0  0  0  0  0  0  0  0  0
   20.6105   -8.2876   57.3041 C   0  0  0  0  0  0  0  0  0  0  0  0
   20.1989   -9.1824   56.5168 O   0  0  0  0  0  0  0  0  0  0  0  0
   22.0003   -8.2268   57.6688 N   0  0  0  0  0  0  0  0  0  0  0  0
   22.2965   -7.4140   58.2498 H   0  0  0  0  0  0  0  0  0  0  0  0
   19.6331   -7.2808   57.8587 C   0  0  0  0  0  0  0  0  0  0  0  0
   17.1451   -7.4881   57.4081 C   0  0  0  0  0  0  0  0  0  0  0  0
   16.2959   -6.5571   57.4889 O   0  0  0  0  0  0  0  0  0  0  0  0
   18.4720   -7.1745   56.9691 N   0  0  0  0  0  0  0  0  0  0  0  0
   18.5378   -6.4881   56.1906 H   0  0  0  0  0  0  0  0  0  0  0  0
   16.6740   -8.9164   57.6260 C   0  0  0  0  0  0  0  0  0  0  0  0
   16.8427  -11.1897   56.5673 C   0  0  0  0  0  0  0  0  0  0  0  0
   15.8272  -11.7336   57.0825 O   0  0  0  0  0  0  0  0  0  0  0  0
   16.8963   -9.7638   56.4523 N   0  0  0  0  0  0  0  0  0  0  0  0
   17.0538   -9.3454   55.5108 H   0  0  0  0  0  0  0  0  0  0  0  0
   18.7818  -11.3604   55.0874 N   0  0  0  0  0  0  0  0  0  0  0  0
   18.0347  -12.0300   56.1606 C   0  0  0  0  0  0  0  0  0  0  0  0
   19.5179  -12.0184   54.7387 H   0  0  0  0  0  0  0  0  0  0  0  0
   18.1364  -11.2044   54.2806 H   0  0  0  0  0  0  0  0  0  0  0  0
   18.9455  -12.3525   57.3660 C   0  0  0  0  0  0  0  0  0  0  0  0
   18.8108  -11.3275   58.3233 O   0  0  0  0  0  0  0  0  0  0  0  0
   18.6080  -13.7017   58.0162 C   0  0  0  0  0  0  0  0  0  0  0  0
   19.5733  -11.4177   58.9499 H   0  0  0  0  0  0  0  0  0  0  0  0
   15.2007   -8.9635   58.0668 C   0  0  0  0  0  0  0  0  0  0  0  0
   14.9956   -8.7989   59.5833 C   0  0  0  0  0  0  0  0  0  0  0  0
   13.8315   -7.8970   59.9083 C   0  0  0  0  0  0  0  0  0  0  0  0
   12.9872   -8.2122   60.7870 O   0  0  0  0  0  0  0  0  0  0  0  0
   13.6893   -6.6555   59.2207 N   0  0  0  0  0  0  0  0  0  0  0  0
   12.8999   -6.0148   59.4492 H   0  0  0  0  0  0  0  0  0  0  0  0
   14.4010   -6.3514   58.5160 H   0  0  0  0  0  0  0  0  0  0  0  0
   20.2319   -5.8768   58.1728 C   0  0  0  0  0  0  0  0  0  0  0  0
   19.3163   -4.8404   58.8574 C   0  0  0  0  0  0  0  0  0  0  0  0
   18.8180   -3.7027   57.9959 C   0  0  0  0  0  0  0  0  0  0  0  0
   19.1619   -2.5322   58.2976 O   0  0  0  0  0  0  0  0  0  0  0  0
   17.9380   -3.8928   56.8830 N   0  0  0  0  0  0  0  0  0  0  0  0
   17.4697   -4.8006   56.6838 H   0  0  0  0  0  0  0  0  0  0  0  0
   17.6512   -3.0694   56.3024 H   0  0  0  0  0  0  0  0  0  0  0  0
   21.1850  -10.2330   53.1448 C   0  0  0  0  0  0  0  0  0  0  0  0
   20.8120  -11.5267   52.7407 O   0  0  0  0  0  0  0  0  0  0  0  0
   20.5424  -12.0134   53.5666 H   0  0  0  0  0  0  0  0  0  0  0  0
   22.7411   -9.8703   49.3737 C   0  0  0  0  0  0  0  0  0  0  0  0
   21.5143   -9.0660   49.6989 C   0  0  0  0  0  0  0  0  0  0  0  0
   21.4854   -7.8697   50.3918 C   0  0  0  0  0  0  0  0  0  0  0  0
   20.2025   -7.4811   50.5449 N   0  0  0  0  0  0  0  0  0  0  0  0
   19.4828   -8.4532   49.9379 C   0  0  0  0  0  0  0  0  0  0  0  0
   20.2550   -9.4239   49.4075 N   0  0  0  0  0  0  0  0  0  0  0  0
   19.9299  -10.2831   48.9139 H   0  0  0  0  0  0  0  0  0  0  0  0
 95 96  1  0  0  0
 96 91  1  0  0  0
 91 92  2  0  0  0
 91 93  1  0  0  0
 93 90  1  0  0  0
 90103  1  0  0  0
103104  1  0  0  0
104105  1  0  0  0
105106  2  0  0  0
105107  1  0  0  0
 90 86  1  0  0  0
 86 87  2  0  0  0
 86 88  1  0  0  0
 88 85  1  0  0  0
 85110  1  0  0  0
110111  1  0  0  0
111112  1  0  0  0
112113  2  0  0  0
112114  1  0  0  0
 85 81  1  0  0  0
 81 82  2  0  0  0
 81 83  1  0  0  0
 83 79  1  0  0  0
 79 80  1  0  0  0
 79 75  1  0  0  0
 75 76  2  0  0  0
 75 77  1  0  0  0
 77 74  1  0  0  0
 74117  1  0  0  0
117118  1  0  0  0
 74 70  1  0  0  0
 70 71  2  0  0  0
 70 72  1  0  0  0
 72 69  1  0  0  0
 69120  1  0  0  0
120121  1  0  0  0
121122  2  0  0  0
122123  1  0  0  0
123124  2  0  0  0
124125  1  0  0  0
 69 65  1  0  0  0
 65 66  2  0  0  0
 65 67  1  0  0  0
 67  1  1  0  0  0
  1  2  1  0  0  0
  2  3  2  0  0  0
  3  4  1  0  0  0
  4  5  2  0  0  0
  5  6  1  0  0  0
  5  7  1  0  0  0
  7  8  2  0  0  0
  1 10  1  0  0  0
 10 11  2  0  0  0
 10 12  1  0  0  0
 12 14  1  0  0  0
 14 58  1  0  0  0
 58 59  1  0  0  0
 59 60  1  0  0  0
 60 61  1  0  0  0
 61 62  1  0  0  0
 14 15  1  0  0  0
 15 16  2  0  0  0
 15 17  1  0  0  0
 17 19  1  0  0  0
 19 51  1  0  0  0
 51 52  1  0  0  0
 52 53  1  0  0  0
 53 54  2  0  0  0
 53 55  1  0  0  0
 19 20  1  0  0  0
 20 21  2  0  0  0
 20 22  1  0  0  0
 22 24  1  0  0  0
 24 44  1  0  0  0
 44 45  1  0  0  0
 45 46  2  0  0  0
 46 47  1  0  0  0
 47 48  2  0  0  0
 48 49  1  0  0  0
 24 25  1  0  0  0
 25 26  2  0  0  0
 25 27  1  0  0  0
 27 29  1  0  0  0
 29 41  1  0  0  0
 41 42  1  0  0  0
 29 30  1  0  0  0
 30 31  2  0  0  0
 30 32  1  0  0  0
 32 33  1  0  0  0
 33 34  1  0  0  0
 34 35  1  0  0  0
 35 36  1  0  0  0
 36 37  1  0  0  0
 37 38  1  0  0  0
 37 39  2  0  0  0
 96 99  1  0  0  0
 99100  1  0  0  0
 99101  1  0  0  0
125121  1  0  0  0
  8  2  1  0  0  0
 49 45  1  0  0  0
 36 32  1  0  0  0
 95 97  1  0  0  0
 95 98  1  0  0  0
 93 94  1  0  0  0
107108  1  0  0  0
107109  1  0  0  0
 88 89  1  0  0  0
114115  1  0  0  0
114116  1  0  0  0
 83 84  1  0  0  0
 77 78  1  0  0  0
118119  1  0  0  0
 72 73  1  0  0  0
125126  1  0  0  0
 67 68  1  0  0  0
  6  9  1  0  0  0
 12 13  1  0  0  0
 62 63  1  0  0  0
 62 64  1  0  0  0
 17 18  1  0  0  0
 55 56  1  0  0  0
 55 57  1  0  0  0
 22 23  1  0  0  0
 49 50  1  0  0  0
 27 28  1  0  0  0
 42 43  1  0  0  0
 38 40  1  0  0  0
100102  1  0  0  0
M  END
> <minimizedAffinity>
-8.11842

$$$$



126129  0  0  0  0  0  0  0  0999 V2000
   17.0892   -9.0086   57.1889 C   0  0  0  0  0  0  0  0  0  0  0  0
   15.9956   -8.6168   58.1555 C   0  0  0  0  0  0  0  0  0  0  0  0
   16.1614   -7.5311   59.0343 C   0  0  0  0  0  0  0  0  0  0  0  0
   15.1244   -7.1485   59.8883 C   0  0  0  0  0  0  0  0  0  0  0  0
   13.9156   -7.8559   59.8915 C   0  0  0  0  0  0  0  0  0  0  0  0
   12.8854   -7.4644   60.7457 O   0  0  0  0  0  0  0  0  0  0  0  0
   13.7482   -8.9479   59.0316 C   0  0  0  0  0  0  0  0  0  0  0  0
   14.7798   -9.3187   58.1627 C   0  0  0  0  0  0  0  0  0  0  0  0
   12.0191   -7.9876   60.7976 H   0  0  0  0  0  0  0  0  0  0  0  0
   18.1473   -7.9387   57.1189 C   0  0  0  0  0  0  0  0  0  0  0  0
   17.9961   -6.9379   56.3699 O   0  0  0  0  0  0  0  0  0  0  0  0
   19.3559   -8.0810   57.8777 N   0  0  0  0  0  0  0  0  0  0  0  0
   19.2565   -8.4260   58.8603 H   0  0  0  0  0  0  0  0  0  0  0  0
   20.7035   -8.1515   57.2893 C   0  0  0  0  0  0  0  0  0  0  0  0
   21.4105   -6.8361   57.5157 C   0  0  0  0  0  0  0  0  0  0  0  0
   21.0609   -5.8019   56.8779 O   0  0  0  0  0  0  0  0  0  0  0  0
   22.4942   -6.7691   58.4531 N   0  0  0  0  0  0  0  0  0  0  0  0
   22.6214   -7.5698   59.1136 H   0  0  0  0  0  0  0  0  0  0  0  0
   23.6194   -5.8459   58.2672 C   0  0  0  0  0  0  0  0  0  0  0  0
   23.7801   -4.9811   59.4942 C   0  0  0  0  0  0  0  0  0  0  0  0
   24.6484   -4.0688   59.4997 O   0  0  0  0  0  0  0  0  0  0  0  0
   22.9053   -5.1518   60.6246 N   0  0  0  0  0  0  0  0  0  0  0  0
   22.1507   -5.8739   60.5413 H   0  0  0  0  0  0  0  0  0  0  0  0
   22.8575   -4.1762   61.7264 C   0  0  0  0  0  0  0  0  0  0  0  0
   22.6283   -4.8470   63.0658 C   0  0  0  0  0  0  0  0  0  0  0  0
   21.4489   -5.0084   63.4825 O   0  0  0  0  0  0  0  0  0  0  0  0
   23.7171   -5.1805   63.9480 N   0  0  0  0  0  0  0  0  0  0  0  0
   23.5506   -5.0065   64.9676 H   0  0  0  0  0  0  0  0  0  0  0  0
   24.8748   -6.0304   63.6140 C   0  0  0  0  0  0  0  0  0  0  0  0
   24.4694   -7.2154   62.7667 C   0  0  0  0  0  0  0  0  0  0  0  0
   24.7913   -7.2592   61.5535 O   0  0  0  0  0  0  0  0  0  0  0  0
   23.6095   -8.2392   63.2855 N   0  0  0  0  0  0  0  0  0  0  0  0
   24.1140   -9.4662   63.8769 C   0  0  0  0  0  0  0  0  0  0  0  0
   22.9411  -10.4356   63.8736 C   0  0  0  0  0  0  0  0  0  0  0  0
   21.6945   -9.5702   63.7023 C   0  0  0  0  0  0  0  0  0  0  0  0
   22.1752   -8.2824   63.0312 C   0  0  0  0  0  0  0  0  0  0  0  0
   21.8879   -8.2993   61.5549 C   0  0  0  0  0  0  0  0  0  0  0  0
   22.5187   -9.2310   60.7430 O   0  0  0  0  0  0  0  0  0  0  0  0
   21.1028   -7.4517   61.0512 O   0  0  0  0  0  0  0  0  0  0  0  0
   22.3505   -9.2494   59.7445 H   0  0  0  0  0  0  0  0  0  0  0  0
   26.0124   -5.2004   62.9848 C   0  0  0  0  0  0  0  0  0  0  0  0
   26.3491   -3.6739   63.9265 S   0  0  0  0  0  0  0  0  0  0  0  0
   26.6374   -4.3254   65.1347 H   0  0  0  0  0  0  0  0  0  0  0  0
   21.7653   -3.1222   61.4428 C   0  0  0  0  0  0  0  0  0  0  0  0
   20.7144   -3.6198   60.4840 C   0  0  0  0  0  0  0  0  0  0  0  0
   20.3883   -3.0671   59.2665 C   0  0  0  0  0  0  0  0  0  0  0  0
   19.3772   -3.7685   58.7187 N   0  0  0  0  0  0  0  0  0  0  0  0
   19.1047   -4.7288   59.6281 C   0  0  0  0  0  0  0  0  0  0  0  0
   19.9001   -4.6656   60.7114 N   0  0  0  0  0  0  0  0  0  0  0  0
   19.8579   -5.2686   61.5628 H   0  0  0  0  0  0  0  0  0  0  0  0
   24.9184   -6.6389   58.0099 C   0  0  0  0  0  0  0  0  0  0  0  0
   24.6560   -8.1379   57.7850 C   0  0  0  0  0  0  0  0  0  0  0  0
   25.5868   -8.9830   58.6100 C   0  0  0  0  0  0  0  0  0  0  0  0
   26.8183   -9.0024   58.3443 O   0  0  0  0  0  0  0  0  0  0  0  0
   25.0830   -9.7732   59.6888 N   0  0  0  0  0  0  0  0  0  0  0  0
   25.7362  -10.3252   60.2883 H   0  0  0  0  0  0  0  0  0  0  0  0
   24.0603   -9.8229   59.8900 H   0  0  0  0  0  0  0  0  0  0  0  0
   20.7021   -8.5768   55.7989 C   0  0  0  0  0  0  0  0  0  0  0  0
   22.1105   -8.5607   55.1802 C   0  0  0  0  0  0  0  0  0  0  0  0
   22.2517   -7.5436   54.0334 C   0  0  0  0  0  0  0  0  0  0  0  0
   23.6077   -7.5765   53.2976 C   0  0  0  0  0  0  0  0  0  0  0  0
   23.9496   -8.9136   52.8065 N   0  0  0  0  0  0  0  0  0  0  0  0
   23.3152   -9.1535   52.0078 H   0  0  0  0  0  0  0  0  0  0  0  0
   23.7876   -9.6085   53.5641 H   0  0  0  0  0  0  0  0  0  0  0  0
   17.4480  -11.4567   56.7583 C   0  0  0  0  0  0  0  0  0  0  0  0
   16.2819  -11.7442   56.3775 O   0  0  0  0  0  0  0  0  0  0  0  0
   17.6699  -10.3001   57.5692 N   0  0  0  0  0  0  0  0  0  0  0  0
   18.3876  -10.3470   58.3296 H   0  0  0  0  0  0  0  0  0  0  0  0
   18.6271  -12.1928   56.1926 C   0  0  0  0  0  0  0  0  0  0  0  0
   18.3643  -12.8949   53.7571 C   0  0  0  0  0  0  0  0  0  0  0  0
   17.4576  -13.2219   52.9372 O   0  0  0  0  0  0  0  0  0  0  0  0
   18.1382  -13.1108   55.1605 N   0  0  0  0  0  0  0  0  0  0  0  0
   17.3461  -13.7421   55.4086 H   0  0  0  0  0  0  0  0  0  0  0  0
   19.6963  -12.3832   53.2506 C   0  0  0  0  0  0  0  0  0  0  0  0
   20.6073  -10.9561   51.3657 C   0  0  0  0  0  0  0  0  0  0  0  0
   21.3215  -10.2935   52.1679 O   0  0  0  0  0  0  0  0  0  0  0  0
   19.6138  -11.8585   51.8797 N   0  0  0  0  0  0  0  0  0  0  0  0
   18.8552  -12.1664   51.2338 H   0  0  0  0  0  0  0  0  0  0  0  0
   20.7982  -10.8289   49.8729 C   0  0  0  0  0  0  0  0  0  0  0  0
   19.6569  -10.0013   49.2830 C   0  0  0  0  0  0  0  0  0  0  0  0
   22.0665  -12.9410   49.1970 C   0  0  0  0  0  0  0  0  0  0  0  0
   23.1507  -12.4688   49.6346 O   0  0  0  0  0  0  0  0  0  0  0  0
   20.8717  -12.1405   49.2059 N   0  0  0  0  0  0  0  0  0  0  0  0
   20.0295  -12.5517   48.7504 H   0  0  0  0  0  0  0  0  0  0  0  0
   22.0338  -14.3517   48.6627 C   0  0  0  0  0  0  0  0  0  0  0  0
   23.8407  -15.3734   47.2042 C   0  0  0  0  0  0  0  0  0  0  0  0
   23.6764  -16.2904   46.3518 O   0  0  0  0  0  0  0  0  0  0  0  0
   22.7875  -14.4239   47.4068 N   0  0  0  0  0  0  0  0  0  0  0  0
   22.2986  -14.1039   46.5463 H   0  0  0  0  0  0  0  0  0  0  0  0
   25.2063  -15.2284   47.8550 C   0  0  0  0  0  0  0  0  0  0  0  0
   25.5824  -15.4022   50.3340 C   0  0  0  0  0  0  0  0  0  0  0  0
   26.7493  -15.8824   50.3329 O   0  0  0  0  0  0  0  0  0  0  0  0
   25.1265  -14.6558   49.2007 N   0  0  0  0  0  0  0  0  0  0  0  0
   24.7785  -13.6848   49.3506 H   0  0  0  0  0  0  0  0  0  0  0  0
   23.9652  -14.4571   51.9060 N   0  0  0  0  0  0  0  0  0  0  0  0
   24.6389  -15.6920   51.4822 C   0  0  0  0  0  0  0  0  0  0  0  0
   23.4229  -14.6609   52.7782 H   0  0  0  0  0  0  0  0  0  0  0  0
   24.6926  -13.7594   52.1814 H   0  0  0  0  0  0  0  0  0  0  0  0
   23.6199  -16.7955   51.1209 C   0  0  0  0  0  0  0  0  0  0  0  0
   24.1134  -17.5263   50.0221 O   0  0  0  0  0  0  0  0  0  0  0  0
   23.3504  -17.7549   52.2888 C   0  0  0  0  0  0  0  0  0  0  0  0
   23.3512  -18.0426   49.6548 H   0  0  0  0  0  0  0  0  0  0  0  0
   26.1701  -14.4193   46.9697 C   0  0  0  0  0  0  0  0  0  0  0  0
   25.9872  -12.8948   47.0762 C   0  0  0  0  0  0  0  0  0  0  0  0
   26.9459  -12.2713   48.0590 C   0  0  0  0  0  0  0  0  0  0  0  0
   27.7362  -12.9778   48.7378 O   0  0  0  0  0  0  0  0  0  0  0  0
   26.9722  -10.8537   48.2143 N   0  0  0  0  0  0  0  0  0  0  0  0
   27.6430  -10.4091   48.8764 H   0  0  0  0  0  0  0  0  0  0  0  0
   26.3549  -10.2416   47.6314 H   0  0  0  0  0  0  0  0  0  0  0  0
   20.6119  -14.9686   48.5022 C   0  0  0  0  0  0  0  0  0  0  0  0
   20.2362  -15.5638   47.1290 C   0  0  0  0  0  0  0  0  0  0  0  0
   19.2638  -14.7681   46.2886 C   0  0  0  0  0  0  0  0  0  0  0  0
   18.2531  -15.3568   45.8294 O   0  0  0  0  0  0  0  0  0  0  0  0
   19.4649  -13.3906   45.9550 N   0  0  0  0  0  0  0  0  0  0  0  0
   20.3575  -12.8899   46.1436 H   0  0  0  0  0  0  0  0  0  0  0  0
   18.7402  -12.8817   45.3954 H   0  0  0  0  0  0  0  0  0  0  0  0
   20.7420  -13.5144   53.3374 C   0  0  0  0  0  0  0  0  0  0  0  0
   21.9883  -13.0146   53.7533 O   0  0  0  0  0  0  0  0  0  0  0  0
   21.9790  -13.0268   54.7490 H   0  0  0  0  0  0  0  0  0  0  0  0
   19.4060  -12.9540   57.2811 C   0  0  0  0  0  0  0  0  0  0  0  0
   20.7389  -12.3057   57.5274 C   0  0  0  0  0  0  0  0  0  0  0  0
   21.1192  -11.6375   58.6767 C   0  0  0  0  0  0  0  0  0  0  0  0
   22.3601  -11.1371   58.5044 N   0  0  0  0  0  0  0  0  0  0  0  0
   22.7039  -11.5165   57.2517 C   0  0  0  0  0  0  0  0  0  0  0  0
   21.7409  -12.2354   56.6385 N   0  0  0  0  0  0  0  0  0  0  0  0
   21.7656  -12.6156   55.6678 H   0  0  0  0  0  0  0  0  0  0  0  0
 95 96  1  0  0  0
 96 91  1  0  0  0
 91 92  2  0  0  0
 91 93  1  0  0  0
 93 90  1  0  0  0
 90103  1  0  0  0
103104  1  0  0  0
104105  1  0  0  0
105106  2  0  0  0
105107  1  0  0  0
 90 86  1  0  0  0
 86 87  2  0  0  0
 86 88  1  0  0  0
 88 85  1  0  0  0
 85110  1  0  0  0
110111  1  0  0  0
111112  1  0  0  0
112113  2  0  0  0
112114  1  0  0  0
 85 81  1  0  0  0
 81 82  2  0  0  0
 81 83  1  0  0  0
 83 79  1  0  0  0
 79 80  1  0  0  0
 79 75  1  0  0  0
 75 76  2  0  0  0
 75 77  1  0  0  0
 77 74  1  0  0  0
 74117  1  0  0  0
117118  1  0  0  0
 74 70  1  0  0  0
 70 71  2  0  0  0
 70 72  1  0  0  0
 72 69  1  0  0  0
 69120  1  0  0  0
120121  1  0  0  0
121122  2  0  0  0
122123  1  0  0  0
123124  2  0  0  0
124125  1  0  0  0
 69 65  1  0  0  0
 65 66  2  0  0  0
 65 67  1  0  0  0
 67  1  1  0  0  0
  1  2  1  0  0  0
  2  3  2  0  0  0
  3  4  1  0  0  0
  4  5  2  0  0  0
  5  6  1  0  0  0
  5  7  1  0  0  0
  7  8  2  0  0  0
  1 10  1  0  0  0
 10 11  2  0  0  0
 10 12  1  0  0  0
 12 14  1  0  0  0
 14 58  1  0  0  0
 58 59  1  0  0  0
 59 60  1  0  0  0
 60 61  1  0  0  0
 61 62  1  0  0  0
 14 15  1  0  0  0
 15 16  2  0  0  0
 15 17  1  0  0  0
 17 19  1  0  0  0
 19 51  1  0  0  0
 51 52  1  0  0  0
 52 53  1  0  0  0
 53 54  2  0  0  0
 53 55  1  0  0  0
 19 20  1  0  0  0
 20 21  2  0  0  0
 20 22  1  0  0  0
 22 24  1  0  0  0
 24 44  1  0  0  0
 44 45  1  0  0  0
 45 46  2  0  0  0
 46 47  1  0  0  0
 47 48  2  0  0  0
 48 49  1  0  0  0
 24 25  1  0  0  0
 25 26  2  0  0  0
 25 27  1  0  0  0
 27 29  1  0  0  0
 29 41  1  0  0  0
 41 42  1  0  0  0
 29 30  1  0  0  0
 30 31  2  0  0  0
 30 32  1  0  0  0
 32 33  1  0  0  0
 33 34  1  0  0  0
 34 35  1  0  0  0
 35 36  1  0  0  0
 36 37  1  0  0  0
 37 38  1  0  0  0
 37 39  2  0  0  0
 96 99  1  0  0  0
 99100  1  0  0  0
 99101  1  0  0  0
125121  1  0  0  0
  8  2  1  0  0  0
 49 45  1  0  0  0
 36 32  1  0  0  0
 95 97  1  0  0  0
 95 98  1  0  0  0
 93 94  1  0  0  0
107108  1  0  0  0
107109  1  0  0  0
 88 89  1  0  0  0
114115  1  0  0  0
114116  1  0  0  0
 83 84  1  0  0  0
 77 78  1  0  0  0
118119  1  0  0  0
 72 73  1  0  0  0
125126  1  0  0  0
 67 68  1  0  0  0
  6  9  1  0  0  0
 12 13  1  0  0  0
 62 63  1  0  0  0
 62 64  1  0  0  0
 17 18  1  0  0  0
 55 56  1  0  0  0
 55 57  1  0  0  0
 22 23  1  0  0  0
 49 50  1  0  0  0
 27 28  1  0  0  0
 42 43  1  0  0  0
 38 40  1  0  0  0
100102  1  0  0  0
M  END
> <minimizedAffinity>
-8.10131

$$$$



126129  0  0  0  0  0  0  0  0999 V2000
   20.4594  -11.5741   55.8522 C   0  0  0  0  0  0  0  0  0  0  0  0
   20.8722  -10.4489   54.9319 C   0  0  0  0  0  0  0  0  0  0  0  0
   21.1192   -9.1580   55.4328 C   0  0  0  0  0  0  0  0  0  0  0  0
   21.5479   -8.1387   54.5792 C   0  0  0  0  0  0  0  0  0  0  0  0
   21.7165   -8.3882   53.2114 C   0  0  0  0  0  0  0  0  0  0  0  0
   22.1475   -7.3649   52.3679 O   0  0  0  0  0  0  0  0  0  0  0  0
   21.4571   -9.6660   52.7017 C   0  0  0  0  0  0  0  0  0  0  0  0
   21.0466  -10.6914   53.5600 C   0  0  0  0  0  0  0  0  0  0  0  0
   22.2337   -7.5096   51.3687 H   0  0  0  0  0  0  0  0  0  0  0  0
   18.9611  -11.6176   56.0023 C   0  0  0  0  0  0  0  0  0  0  0  0
   18.2304  -11.9452   55.0306 O   0  0  0  0  0  0  0  0  0  0  0  0
   18.3586  -11.2415   57.2482 N   0  0  0  0  0  0  0  0  0  0  0  0
   18.8185  -11.5950   58.1188 H   0  0  0  0  0  0  0  0  0  0  0  0
   17.4136  -10.1245   57.4110 C   0  0  0  0  0  0  0  0  0  0  0  0
   18.1835   -8.8251   57.4292 C   0  0  0  0  0  0  0  0  0  0  0  0
   18.0265   -7.9736   56.5078 O   0  0  0  0  0  0  0  0  0  0  0  0
   19.1075   -8.5667   58.4954 N   0  0  0  0  0  0  0  0  0  0  0  0
   19.0617   -9.1776   59.3429 H   0  0  0  0  0  0  0  0  0  0  0  0
   20.3212   -7.7685   58.2883 C   0  0  0  0  0  0  0  0  0  0  0  0
   20.0806   -6.3462   58.7343 C   0  0  0  0  0  0  0  0  0  0  0  0
   19.6561   -6.1258   59.8994 O   0  0  0  0  0  0  0  0  0  0  0  0
   20.3960   -5.2464   57.8607 N   0  0  0  0  0  0  0  0  0  0  0  0
   20.8172   -5.4795   56.9301 H   0  0  0  0  0  0  0  0  0  0  0  0
   20.4191   -3.8540   58.3392 C   0  0  0  0  0  0  0  0  0  0  0  0
   19.7540   -2.9085   57.3593 C   0  0  0  0  0  0  0  0  0  0  0  0
   18.7591   -2.2298   57.7337 O   0  0  0  0  0  0  0  0  0  0  0  0
   20.1302   -2.8618   55.9696 N   0  0  0  0  0  0  0  0  0  0  0  0
   19.3433   -2.7636   55.2849 H   0  0  0  0  0  0  0  0  0  0  0  0
   21.4840   -2.6031   55.4457 C   0  0  0  0  0  0  0  0  0  0  0  0
   22.0238   -3.7940   54.6861 C   0  0  0  0  0  0  0  0  0  0  0  0
   22.2742   -4.8647   55.2929 O   0  0  0  0  0  0  0  0  0  0  0  0
   22.3809   -3.6909   53.3009 N   0  0  0  0  0  0  0  0  0  0  0  0
   21.4717   -4.0450   52.2249 C   0  0  0  0  0  0  0  0  0  0  0  0
   22.3459   -4.2293   50.9932 C   0  0  0  0  0  0  0  0  0  0  0  0
   23.6614   -3.5233   51.3147 C   0  0  0  0  0  0  0  0  0  0  0  0
   23.7492   -3.4898   52.8415 C   0  0  0  0  0  0  0  0  0  0  0  0
   24.6575   -4.5721   53.3573 C   0  0  0  0  0  0  0  0  0  0  0  0
   25.6410   -4.2592   54.2846 O   0  0  0  0  0  0  0  0  0  0  0  0
   24.5480   -5.7515   52.9267 O   0  0  0  0  0  0  0  0  0  0  0  0
   26.2724   -4.9702   54.6331 H   0  0  0  0  0  0  0  0  0  0  0  0
   21.5245   -1.2968   54.6267 C   0  0  0  0  0  0  0  0  0  0  0  0
   23.0377   -0.3301   54.9523 S   0  0  0  0  0  0  0  0  0  0  0  0
   23.9271   -1.3440   54.5671 H   0  0  0  0  0  0  0  0  0  0  0  0
   21.8749   -3.4232   58.6204 C   0  0  0  0  0  0  0  0  0  0  0  0
   22.1485   -3.2284   60.0896 C   0  0  0  0  0  0  0  0  0  0  0  0
   21.2300   -3.3059   61.1115 C   0  0  0  0  0  0  0  0  0  0  0  0
   21.8439   -3.0361   62.2797 N   0  0  0  0  0  0  0  0  0  0  0  0
   23.1257   -2.7884   61.9348 C   0  0  0  0  0  0  0  0  0  0  0  0
   23.3429   -2.8977   60.6115 N   0  0  0  0  0  0  0  0  0  0  0  0
   24.2350   -2.7160   60.1001 H   0  0  0  0  0  0  0  0  0  0  0  0
   21.4968   -8.3761   59.0827 C   0  0  0  0  0  0  0  0  0  0  0  0
   21.4414   -9.9126   59.1296 C   0  0  0  0  0  0  0  0  0  0  0  0
   21.7959  -10.4285   60.4969 C   0  0  0  0  0  0  0  0  0  0  0  0
   22.2817   -9.6455   61.3563 O   0  0  0  0  0  0  0  0  0  0  0  0
   21.5948  -11.8043   60.8264 N   0  0  0  0  0  0  0  0  0  0  0  0
   21.8002  -12.1516   61.7898 H   0  0  0  0  0  0  0  0  0  0  0  0
   21.2525  -12.4856   60.1140 H   0  0  0  0  0  0  0  0  0  0  0  0
   16.4826  -10.2810   58.6403 C   0  0  0  0  0  0  0  0  0  0  0  0
   15.1530   -9.5257   58.4724 C   0  0  0  0  0  0  0  0  0  0  0  0
   14.9603   -8.4089   59.5141 C   0  0  0  0  0  0  0  0  0  0  0  0
   15.3357   -6.9933   59.0277 C   0  0  0  0  0  0  0  0  0  0  0  0
   16.6174   -6.5336   59.5680 N   0  0  0  0  0  0  0  0  0  0  0  0
   17.3900   -7.0801   59.1182 H   0  0  0  0  0  0  0  0  0  0  0  0
   16.6452   -6.7222   60.5911 H   0  0  0  0  0  0  0  0  0  0  0  0
   20.4686  -14.0854   55.8799 C   0  0  0  0  0  0  0  0  0  0  0  0
   20.3735  -14.2510   57.1252 O   0  0  0  0  0  0  0  0  0  0  0  0
   20.9771  -12.8544   55.3596 N   0  0  0  0  0  0  0  0  0  0  0  0
   21.5867  -12.8794   54.5092 H   0  0  0  0  0  0  0  0  0  0  0  0
   19.8550  -15.0810   54.9395 C   0  0  0  0  0  0  0  0  0  0  0  0
   19.5720  -14.4348   52.4908 C   0  0  0  0  0  0  0  0  0  0  0  0
   19.4993  -13.4003   51.7656 O   0  0  0  0  0  0  0  0  0  0  0  0
   19.1790  -14.3410   53.8706 N   0  0  0  0  0  0  0  0  0  0  0  0
   18.6312  -13.4949   54.1380 H   0  0  0  0  0  0  0  0  0  0  0  0
   19.9683  -15.7626   51.8804 C   0  0  0  0  0  0  0  0  0  0  0  0
   22.3053  -16.6701   52.2464 C   0  0  0  0  0  0  0  0  0  0  0  0
   22.0055  -17.0674   53.4062 O   0  0  0  0  0  0  0  0  0  0  0  0
   21.3953  -15.8184   51.5310 N   0  0  0  0  0  0  0  0  0  0  0  0
   21.7702  -15.2739   50.7246 H   0  0  0  0  0  0  0  0  0  0  0  0
   23.5984  -17.0961   51.5925 C   0  0  0  0  0  0  0  0  0  0  0  0
   24.1677  -18.3062   52.3322 C   0  0  0  0  0  0  0  0  0  0  0  0
   25.3016  -15.6426   50.3628 C   0  0  0  0  0  0  0  0  0  0  0  0
   25.2079  -16.3536   49.3257 O   0  0  0  0  0  0  0  0  0  0  0  0
   24.5915  -16.0084   51.5587 N   0  0  0  0  0  0  0  0  0  0  0  0
   24.7781  -15.4341   52.4079 H   0  0  0  0  0  0  0  0  0  0  0  0
   26.1662  -14.4062   50.3388 C   0  0  0  0  0  0  0  0  0  0  0  0
   25.8972  -12.2979   48.9537 C   0  0  0  0  0  0  0  0  0  0  0  0
   26.8294  -11.6449   48.4068 O   0  0  0  0  0  0  0  0  0  0  0  0
   26.0176  -13.7219   49.0503 N   0  0  0  0  0  0  0  0  0  0  0  0
   26.4195  -14.1970   48.2168 H   0  0  0  0  0  0  0  0  0  0  0  0
   24.6257  -11.5588   49.3366 C   0  0  0  0  0  0  0  0  0  0  0  0
   22.1954  -12.1758   49.1632 C   0  0  0  0  0  0  0  0  0  0  0  0
   21.6964  -11.2472   49.8569 O   0  0  0  0  0  0  0  0  0  0  0  0
   23.4710  -11.9841   48.5424 N   0  0  0  0  0  0  0  0  0  0  0  0
   23.5474  -12.1121   47.5108 H   0  0  0  0  0  0  0  0  0  0  0  0
   20.0611  -13.3193   48.8218 N   0  0  0  0  0  0  0  0  0  0  0  0
   21.4965  -13.5153   49.0653 C   0  0  0  0  0  0  0  0  0  0  0  0
   19.5858  -14.2498   48.8889 H   0  0  0  0  0  0  0  0  0  0  0  0
   19.6676  -12.7436   49.6001 H   0  0  0  0  0  0  0  0  0  0  0  0
   22.1346  -14.4159   47.9844 C   0  0  0  0  0  0  0  0  0  0  0  0
   22.4351  -15.6678   48.5567 O   0  0  0  0  0  0  0  0  0  0  0  0
   21.2178  -14.6200   46.7700 C   0  0  0  0  0  0  0  0  0  0  0  0
   23.0603  -16.1241   47.9376 H   0  0  0  0  0  0  0  0  0  0  0  0
   24.8145  -10.0338   49.2590 C   0  0  0  0  0  0  0  0  0  0  0  0
   24.3559   -9.2815   50.5211 C   0  0  0  0  0  0  0  0  0  0  0  0
   25.4351   -9.2174   51.5723 C   0  0  0  0  0  0  0  0  0  0  0  0
   26.5963   -9.6456   51.3426 O   0  0  0  0  0  0  0  0  0  0  0  0
   25.1436   -8.6475   52.8469 N   0  0  0  0  0  0  0  0  0  0  0  0
   25.8856   -8.5802   53.5755 H   0  0  0  0  0  0  0  0  0  0  0  0
   24.1980   -8.2464   53.0482 H   0  0  0  0  0  0  0  0  0  0  0  0
   27.6682  -14.6391   50.6826 C   0  0  0  0  0  0  0  0  0  0  0  0
   28.5004  -13.4209   51.1347 C   0  0  0  0  0  0  0  0  0  0  0  0
   29.7984  -13.1764   50.3996 C   0  0  0  0  0  0  0  0  0  0  0  0
   29.8729  -12.1796   49.6380 O   0  0  0  0  0  0  0  0  0  0  0  0
   30.9274  -14.0512   50.4956 N   0  0  0  0  0  0  0  0  0  0  0  0
   30.8806  -14.9827   50.9574 H   0  0  0  0  0  0  0  0  0  0  0  0
   31.8122  -13.8132   49.9879 H   0  0  0  0  0  0  0  0  0  0  0  0
   19.0937  -16.0327   50.6384 C   0  0  0  0  0  0  0  0  0  0  0  0
   19.8800  -16.4619   49.5550 O   0  0  0  0  0  0  0  0  0  0  0  0
   19.9612  -17.4507   49.6399 H   0  0  0  0  0  0  0  0  0  0  0  0
   18.8744  -16.0243   55.6603 C   0  0  0  0  0  0  0  0  0  0  0  0
   19.5297  -17.3446   55.9518 C   0  0  0  0  0  0  0  0  0  0  0  0
   18.9156  -18.5830   55.9188 C   0  0  0  0  0  0  0  0  0  0  0  0
   19.8036  -19.5246   56.2996 N   0  0  0  0  0  0  0  0  0  0  0  0
   20.9385  -18.8324   56.5533 C   0  0  0  0  0  0  0  0  0  0  0  0
   20.8028  -17.5069   56.3416 N   0  0  0  0  0  0  0  0  0  0  0  0
   21.5272  -16.7717   56.4904 H   0  0  0  0  0  0  0  0  0  0  0  0
 95 96  1  0  0  0
 96 91  1  0  0  0
 91 92  2  0  0  0
 91 93  1  0  0  0
 93 90  1  0  0  0
 90103  1  0  0  0
103104  1  0  0  0
104105  1  0  0  0
105106  2  0  0  0
105107  1  0  0  0
 90 86  1  0  0  0
 86 87  2  0  0  0
 86 88  1  0  0  0
 88 85  1  0  0  0
 85110  1  0  0  0
110111  1  0  0  0
111112  1  0  0  0
112113  2  0  0  0
112114  1  0  0  0
 85 81  1  0  0  0
 81 82  2  0  0  0
 81 83  1  0  0  0
 83 79  1  0  0  0
 79 80  1  0  0  0
 79 75  1  0  0  0
 75 76  2  0  0  0
 75 77  1  0  0  0
 77 74  1  0  0  0
 74117  1  0  0  0
117118  1  0  0  0
 74 70  1  0  0  0
 70 71  2  0  0  0
 70 72  1  0  0  0
 72 69  1  0  0  0
 69120  1  0  0  0
120121  1  0  0  0
121122  2  0  0  0
122123  1  0  0  0
123124  2  0  0  0
124125  1  0  0  0
 69 65  1  0  0  0
 65 66  2  0  0  0
 65 67  1  0  0  0
 67  1  1  0  0  0
  1  2  1  0  0  0
  2  3  2  0  0  0
  3  4  1  0  0  0
  4  5  2  0  0  0
  5  6  1  0  0  0
  5  7  1  0  0  0
  7  8  2  0  0  0
  1 10  1  0  0  0
 10 11  2  0  0  0
 10 12  1  0  0  0
 12 14  1  0  0  0
 14 58  1  0  0  0
 58 59  1  0  0  0
 59 60  1  0  0  0
 60 61  1  0  0  0
 61 62  1  0  0  0
 14 15  1  0  0  0
 15 16  2  0  0  0
 15 17  1  0  0  0
 17 19  1  0  0  0
 19 51  1  0  0  0
 51 52  1  0  0  0
 52 53  1  0  0  0
 53 54  2  0  0  0
 53 55  1  0  0  0
 19 20  1  0  0  0
 20 21  2  0  0  0
 20 22  1  0  0  0
 22 24  1  0  0  0
 24 44  1  0  0  0
 44 45  1  0  0  0
 45 46  2  0  0  0
 46 47  1  0  0  0
 47 48  2  0  0  0
 48 49  1  0  0  0
 24 25  1  0  0  0
 25 26  2  0  0  0
 25 27  1  0  0  0
 27 29  1  0  0  0
 29 41  1  0  0  0
 41 42  1  0  0  0
 29 30  1  0  0  0
 30 31  2  0  0  0
 30 32  1  0  0  0
 32 33  1  0  0  0
 33 34  1  0  0  0
 34 35  1  0  0  0
 35 36  1  0  0  0
 36 37  1  0  0  0
 37 38  1  0  0  0
 37 39  2  0  0  0
 96 99  1  0  0  0
 99100  1  0  0  0
 99101  1  0  0  0
125121  1  0  0  0
  8  2  1  0  0  0
 49 45  1  0  0  0
 36 32  1  0  0  0
 95 97  1  0  0  0
 95 98  1  0  0  0
 93 94  1  0  0  0
107108  1  0  0  0
107109  1  0  0  0
 88 89  1  0  0  0
114115  1  0  0  0
114116  1  0  0  0
 83 84  1  0  0  0
 77 78  1  0  0  0
118119  1  0  0  0
 72 73  1  0  0  0
125126  1  0  0  0
 67 68  1  0  0  0
  6  9  1  0  0  0
 12 13  1  0  0  0
 62 63  1  0  0  0
 62 64  1  0  0  0
 17 18  1  0  0  0
 55 56  1  0  0  0
 55 57  1  0  0  0
 22 23  1  0  0  0
 49 50  1  0  0  0
 27 28  1  0  0  0
 42 43  1  0  0  0
 38 40  1  0  0  0
100102  1  0  0  0
M  END
> <minimizedAffinity>
-7.88181

$$$$



126129  0  0  0  0  0  0  0  0999 V2000
   23.6682   -2.0772   57.5286 C   0  0  0  0  0  0  0  0  0  0  0  0
   24.0035   -0.7683   56.8518 C   0  0  0  0  0  0  0  0  0  0  0  0
   24.0740   -0.6757   55.4501 C   0  0  0  0  0  0  0  0  0  0  0  0
   24.3363    0.5508   54.8352 C   0  0  0  0  0  0  0  0  0  0  0  0
   24.5517    1.6971   55.6106 C   0  0  0  0  0  0  0  0  0  0  0  0
   24.8100    2.9173   54.9873 O   0  0  0  0  0  0  0  0  0  0  0  0
   24.4995    1.6104   57.0069 C   0  0  0  0  0  0  0  0  0  0  0  0
   24.2175    0.3860   57.6217 C   0  0  0  0  0  0  0  0  0  0  0  0
   25.0129    3.7502   55.5276 H   0  0  0  0  0  0  0  0  0  0  0  0
   24.7793   -2.4987   58.4543 C   0  0  0  0  0  0  0  0  0  0  0  0
   24.5889   -2.5549   59.6977 O   0  0  0  0  0  0  0  0  0  0  0  0
   26.0767   -2.7968   57.9209 N   0  0  0  0  0  0  0  0  0  0  0  0
   26.1051   -3.3637   57.0421 H   0  0  0  0  0  0  0  0  0  0  0  0
   27.3082   -2.0724   58.2760 C   0  0  0  0  0  0  0  0  0  0  0  0
   28.1197   -1.8349   57.0244 C   0  0  0  0  0  0  0  0  0  0  0  0
   29.2569   -2.3699   56.8862 O   0  0  0  0  0  0  0  0  0  0  0  0
   27.5963   -0.9850   55.9943 N   0  0  0  0  0  0  0  0  0  0  0  0
   26.5824   -0.7324   56.0349 H   0  0  0  0  0  0  0  0  0  0  0  0
   28.4740   -0.1711   55.1454 C   0  0  0  0  0  0  0  0  0  0  0  0
   28.5102   -0.7439   53.7490 C   0  0  0  0  0  0  0  0  0  0  0  0
   29.6211   -0.9901   53.2090 O   0  0  0  0  0  0  0  0  0  0  0  0
   27.2867   -1.0691   53.0637 N   0  0  0  0  0  0  0  0  0  0  0  0
   26.3907   -0.9156   53.5847 H   0  0  0  0  0  0  0  0  0  0  0  0
   27.2768   -1.8566   51.8196 C   0  0  0  0  0  0  0  0  0  0  0  0
   28.1171   -3.1121   51.9387 C   0  0  0  0  0  0  0  0  0  0  0  0
   29.1859   -3.2057   51.2757 O   0  0  0  0  0  0  0  0  0  0  0  0
   27.6658   -4.2649   52.6753 N   0  0  0  0  0  0  0  0  0  0  0  0
   27.8688   -5.1956   52.2392 H   0  0  0  0  0  0  0  0  0  0  0  0
   27.2647   -4.2852   54.0941 C   0  0  0  0  0  0  0  0  0  0  0  0
   25.7739   -4.4854   54.2482 C   0  0  0  0  0  0  0  0  0  0  0  0
   25.2767   -4.6452   55.3905 O   0  0  0  0  0  0  0  0  0  0  0  0
   24.9217   -4.6266   53.1034 N   0  0  0  0  0  0  0  0  0  0  0  0
   24.2083   -3.5089   52.5103 C   0  0  0  0  0  0  0  0  0  0  0  0
   23.1119   -4.1288   51.6564 C   0  0  0  0  0  0  0  0  0  0  0  0
   23.5354   -5.5793   51.4352 C   0  0  0  0  0  0  0  0  0  0  0  0
   24.4736   -5.9167   52.5953 C   0  0  0  0  0  0  0  0  0  0  0  0
   23.7584   -6.6995   53.6622 C   0  0  0  0  0  0  0  0  0  0  0  0
   22.6824   -6.1295   54.3274 O   0  0  0  0  0  0  0  0  0  0  0  0
   24.1531   -7.8551   53.9740 O   0  0  0  0  0  0  0  0  0  0  0  0
   22.1969   -6.6339   55.0591 H   0  0  0  0  0  0  0  0  0  0  0  0
   28.0964   -5.3087   54.8937 C   0  0  0  0  0  0  0  0  0  0  0  0
   29.8613   -5.2694   54.4311 S   0  0  0  0  0  0  0  0  0  0  0  0
   30.0507   -3.9165   54.7492 H   0  0  0  0  0  0  0  0  0  0  0  0
   27.7580   -0.9797   50.6434 C   0  0  0  0  0  0  0  0  0  0  0  0
   27.0311   -1.2832   49.3585 C   0  0  0  0  0  0  0  0  0  0  0  0
   27.3175   -0.7701   48.1141 C   0  0  0  0  0  0  0  0  0  0  0  0
   26.4264   -1.2463   47.2233 N   0  0  0  0  0  0  0  0  0  0  0  0
   25.6087   -2.0327   47.9556 C   0  0  0  0  0  0  0  0  0  0  0  0
   25.9500   -2.0763   49.2563 N   0  0  0  0  0  0  0  0  0  0  0  0
   25.4516   -2.5786   50.0242 H   0  0  0  0  0  0  0  0  0  0  0  0
   27.9668    1.2860   55.1023 C   0  0  0  0  0  0  0  0  0  0  0  0
   28.2212    2.0352   56.4214 C   0  0  0  0  0  0  0  0  0  0  0  0
   28.1692    3.5245   56.2202 C   0  0  0  0  0  0  0  0  0  0  0  0
   27.5114    4.0051   55.2590 O   0  0  0  0  0  0  0  0  0  0  0  0
   28.8691    4.3999   57.1066 N   0  0  0  0  0  0  0  0  0  0  0  0
   28.7963    5.4355   56.9919 H   0  0  0  0  0  0  0  0  0  0  0  0
   29.4708    4.0249   57.8723 H   0  0  0  0  0  0  0  0  0  0  0  0
   28.1284   -2.7653   59.3937 C   0  0  0  0  0  0  0  0  0  0  0  0
   28.0920   -1.9868   60.7201 C   0  0  0  0  0  0  0  0  0  0  0  0
   27.3742   -2.7518   61.8466 C   0  0  0  0  0  0  0  0  0  0  0  0
   26.4546   -1.8889   62.7360 C   0  0  0  0  0  0  0  0  0  0  0  0
   27.1900   -0.8595   63.4747 N   0  0  0  0  0  0  0  0  0  0  0  0
   27.5145   -0.1259   62.8007 H   0  0  0  0  0  0  0  0  0  0  0  0
   28.0317   -1.2875   63.9122 H   0  0  0  0  0  0  0  0  0  0  0  0
   21.1611   -2.2185   57.5695 C   0  0  0  0  0  0  0  0  0  0  0  0
   20.9328   -1.6718   56.4576 O   0  0  0  0  0  0  0  0  0  0  0  0
   22.3950   -1.9701   58.2479 N   0  0  0  0  0  0  0  0  0  0  0  0
   22.3894   -1.8862   59.2912 H   0  0  0  0  0  0  0  0  0  0  0  0
   20.2452   -3.2909   58.0827 C   0  0  0  0  0  0  0  0  0  0  0  0
   18.6968   -4.5972   56.5367 C   0  0  0  0  0  0  0  0  0  0  0  0
   18.2327   -4.5422   55.3607 O   0  0  0  0  0  0  0  0  0  0  0  0
   19.0926   -3.3747   57.1818 N   0  0  0  0  0  0  0  0  0  0  0  0
   18.7545   -2.4910   56.7432 H   0  0  0  0  0  0  0  0  0  0  0  0
   18.7333   -5.9177   57.2767 C   0  0  0  0  0  0  0  0  0  0  0  0
   20.4630   -7.5390   56.3830 C   0  0  0  0  0  0  0  0  0  0  0  0
   21.4076   -6.8014   56.7787 O   0  0  0  0  0  0  0  0  0  0  0  0
   19.1154   -7.0401   56.4074 N   0  0  0  0  0  0  0  0  0  0  0  0
   18.4045   -7.5294   55.8220 H   0  0  0  0  0  0  0  0  0  0  0  0
   20.7284   -8.9467   55.9045 C   0  0  0  0  0  0  0  0  0  0  0  0
   21.7056   -9.6323   56.8587 C   0  0  0  0  0  0  0  0  0  0  0  0
   21.1860  -10.1503   53.6981 C   0  0  0  0  0  0  0  0  0  0  0  0
   20.8049  -11.2505   54.1821 O   0  0  0  0  0  0  0  0  0  0  0  0
   21.2553   -8.9785   54.5290 N   0  0  0  0  0  0  0  0  0  0  0  0
   21.6617   -8.1218   54.0968 H   0  0  0  0  0  0  0  0  0  0  0  0
   21.5701  -10.0743   52.2409 C   0  0  0  0  0  0  0  0  0  0  0  0
   23.7627  -10.2270   50.9740 C   0  0  0  0  0  0  0  0  0  0  0  0
   24.2435   -9.3416   50.2129 O   0  0  0  0  0  0  0  0  0  0  0  0
   23.0085   -9.8153   52.1200 N   0  0  0  0  0  0  0  0  0  0  0  0
   23.3822   -8.9907   52.6319 H   0  0  0  0  0  0  0  0  0  0  0  0
   24.1429  -11.6773   50.7254 C   0  0  0  0  0  0  0  0  0  0  0  0
   26.3247  -12.2977   49.6430 C   0  0  0  0  0  0  0  0  0  0  0  0
   26.5688  -13.3667   50.2676 O   0  0  0  0  0  0  0  0  0  0  0  0
   24.9728  -11.8407   49.5298 N   0  0  0  0  0  0  0  0  0  0  0  0
   24.5827  -11.6694   48.5785 H   0  0  0  0  0  0  0  0  0  0  0  0
   26.9395  -10.1844   48.5772 N   0  0  0  0  0  0  0  0  0  0  0  0
   27.4593  -11.4556   49.0989 C   0  0  0  0  0  0  0  0  0  0  0  0
   27.7210   -9.6833   48.0931 H   0  0  0  0  0  0  0  0  0  0  0  0
   26.2343  -10.3934   47.8350 H   0  0  0  0  0  0  0  0  0  0  0  0
   28.5588  -11.2233   50.1591 C   0  0  0  0  0  0  0  0  0  0  0  0
   29.4070  -10.1902   49.7139 O   0  0  0  0  0  0  0  0  0  0  0  0
   27.9841  -10.8515   51.5333 C   0  0  0  0  0  0  0  0  0  0  0  0
   30.2282  -10.2343   50.2669 H   0  0  0  0  0  0  0  0  0  0  0  0
   22.9008  -12.5829   50.6603 C   0  0  0  0  0  0  0  0  0  0  0  0
   22.1006  -12.4547   49.3517 C   0  0  0  0  0  0  0  0  0  0  0  0
   22.2974  -13.6416   48.4427 C   0  0  0  0  0  0  0  0  0  0  0  0
   23.3551  -14.3231   48.4787 O   0  0  0  0  0  0  0  0  0  0  0  0
   21.2619  -14.0122   47.5345 N   0  0  0  0  0  0  0  0  0  0  0  0
   21.3777  -14.8415   46.9142 H   0  0  0  0  0  0  0  0  0  0  0  0
   20.3564  -13.4874   47.5149 H   0  0  0  0  0  0  0  0  0  0  0  0
   20.7430   -9.0663   51.3876 C   0  0  0  0  0  0  0  0  0  0  0  0
   19.7252   -9.6413   50.3804 C   0  0  0  0  0  0  0  0  0  0  0  0
   20.0078   -9.3952   48.9160 C   0  0  0  0  0  0  0  0  0  0  0  0
   21.1765   -9.0782   48.5800 O   0  0  0  0  0  0  0  0  0  0  0  0
   18.9980   -9.4617   47.9035 N   0  0  0  0  0  0  0  0  0  0  0  0
   17.9838   -9.5385   48.1237 H   0  0  0  0  0  0  0  0  0  0  0  0
   19.2595   -9.3130   46.9001 H   0  0  0  0  0  0  0  0  0  0  0  0
   17.3570   -6.1760   57.9244 C   0  0  0  0  0  0  0  0  0  0  0  0
   16.3163   -5.7946   57.0597 O   0  0  0  0  0  0  0  0  0  0  0  0
   16.1266   -6.5831   56.4819 H   0  0  0  0  0  0  0  0  0  0  0  0
   19.7936   -3.0178   59.5292 C   0  0  0  0  0  0  0  0  0  0  0  0
   20.2991   -4.0908   60.4515 C   0  0  0  0  0  0  0  0  0  0  0  0
   21.5639   -4.1577   61.0065 C   0  0  0  0  0  0  0  0  0  0  0  0
   21.6688   -5.2940   61.7262 N   0  0  0  0  0  0  0  0  0  0  0  0
   20.4610   -5.8894   61.5911 C   0  0  0  0  0  0  0  0  0  0  0  0
   19.6067   -5.1757   60.8291 N   0  0  0  0  0  0  0  0  0  0  0  0
   18.6331   -5.4397   60.5648 H   0  0  0  0  0  0  0  0  0  0  0  0
 95 96  1  0  0  0
 96 91  1  0  0  0
 91 92  2  0  0  0
 91 93  1  0  0  0
 93 90  1  0  0  0
 90103  1  0  0  0
103104  1  0  0  0
104105  1  0  0  0
105106  2  0  0  0
105107  1  0  0  0
 90 86  1  0  0  0
 86 87  2  0  0  0
 86 88  1  0  0  0
 88 85  1  0  0  0
 85110  1  0  0  0
110111  1  0  0  0
111112  1  0  0  0
112113  2  0  0  0
112114  1  0  0  0
 85 81  1  0  0  0
 81 82  2  0  0  0
 81 83  1  0  0  0
 83 79  1  0  0  0
 79 80  1  0  0  0
 79 75  1  0  0  0
 75 76  2  0  0  0
 75 77  1  0  0  0
 77 74  1  0  0  0
 74117  1  0  0  0
117118  1  0  0  0
 74 70  1  0  0  0
 70 71  2  0  0  0
 70 72  1  0  0  0
 72 69  1  0  0  0
 69120  1  0  0  0
120121  1  0  0  0
121122  2  0  0  0
122123  1  0  0  0
123124  2  0  0  0
124125  1  0  0  0
 69 65  1  0  0  0
 65 66  2  0  0  0
 65 67  1  0  0  0
 67  1  1  0  0  0
  1  2  1  0  0  0
  2  3  2  0  0  0
  3  4  1  0  0  0
  4  5  2  0  0  0
  5  6  1  0  0  0
  5  7  1  0  0  0
  7  8  2  0  0  0
  1 10  1  0  0  0
 10 11  2  0  0  0
 10 12  1  0  0  0
 12 14  1  0  0  0
 14 58  1  0  0  0
 58 59  1  0  0  0
 59 60  1  0  0  0
 60 61  1  0  0  0
 61 62  1  0  0  0
 14 15  1  0  0  0
 15 16  2  0  0  0
 15 17  1  0  0  0
 17 19  1  0  0  0
 19 51  1  0  0  0
 51 52  1  0  0  0
 52 53  1  0  0  0
 53 54  2  0  0  0
 53 55  1  0  0  0
 19 20  1  0  0  0
 20 21  2  0  0  0
 20 22  1  0  0  0
 22 24  1  0  0  0
 24 44  1  0  0  0
 44 45  1  0  0  0
 45 46  2  0  0  0
 46 47  1  0  0  0
 47 48  2  0  0  0
 48 49  1  0  0  0
 24 25  1  0  0  0
 25 26  2  0  0  0
 25 27  1  0  0  0
 27 29  1  0  0  0
 29 41  1  0  0  0
 41 42  1  0  0  0
 29 30  1  0  0  0
 30 31  2  0  0  0
 30 32  1  0  0  0
 32 33  1  0  0  0
 33 34  1  0  0  0
 34 35  1  0  0  0
 35 36  1  0  0  0
 36 37  1  0  0  0
 37 38  1  0  0  0
 37 39  2  0  0  0
 96 99  1  0  0  0
 99100  1  0  0  0
 99101  1  0  0  0
125121  1  0  0  0
  8  2  1  0  0  0
 49 45  1  0  0  0
 36 32  1  0  0  0
 95 97  1  0  0  0
 95 98  1  0  0  0
 93 94  1  0  0  0
107108  1  0  0  0
107109  1  0  0  0
 88 89  1  0  0  0
114115  1  0  0  0
114116  1  0  0  0
 83 84  1  0  0  0
 77 78  1  0  0  0
118119  1  0  0  0
 72 73  1  0  0  0
125126  1  0  0  0
 67 68  1  0  0  0
  6  9  1  0  0  0
 12 13  1  0  0  0
 62 63  1  0  0  0
 62 64  1  0  0  0
 17 18  1  0  0  0
 55 56  1  0  0  0
 55 57  1  0  0  0
 22 23  1  0  0  0
 49 50  1  0  0  0
 27 28  1  0  0  0
 42 43  1  0  0  0
 38 40  1  0  0  0
100102  1  0  0  0
M  END
> <minimizedAffinity>
-7.55140

$$$$



126129  0  0  0  0  0  0  0  0999 V2000
   17.8229   -9.6308   56.9232 C   0  0  0  0  0  0  0  0  0  0  0  0
   16.7721   -8.9526   57.7714 C   0  0  0  0  0  0  0  0  0  0  0  0
   16.1712   -9.6229   58.8523 C   0  0  0  0  0  0  0  0  0  0  0  0
   15.2372   -8.9683   59.6587 C   0  0  0  0  0  0  0  0  0  0  0  0
   14.8751   -7.6431   59.3858 C   0  0  0  0  0  0  0  0  0  0  0  0
   13.9439   -6.9974   60.1984 O   0  0  0  0  0  0  0  0  0  0  0  0
   15.4562   -6.9739   58.3021 C   0  0  0  0  0  0  0  0  0  0  0  0
   16.4058   -7.6234   57.5065 C   0  0  0  0  0  0  0  0  0  0  0  0
   13.6334   -6.0547   59.9942 H   0  0  0  0  0  0  0  0  0  0  0  0
   19.1905   -9.0754   57.2237 C   0  0  0  0  0  0  0  0  0  0  0  0
   19.8558   -9.5082   58.2012 O   0  0  0  0  0  0  0  0  0  0  0  0
   19.7221   -8.0153   56.4172 N   0  0  0  0  0  0  0  0  0  0  0  0
   19.5853   -8.0970   55.3833 H   0  0  0  0  0  0  0  0  0  0  0  0
   20.0865   -6.6839   56.9290 C   0  0  0  0  0  0  0  0  0  0  0  0
   21.5230   -6.3914   56.5654 C   0  0  0  0  0  0  0  0  0  0  0  0
   22.2595   -7.2980   56.0812 O   0  0  0  0  0  0  0  0  0  0  0  0
   22.0534   -5.0770   56.7854 N   0  0  0  0  0  0  0  0  0  0  0  0
   21.3788   -4.3023   56.9810 H   0  0  0  0  0  0  0  0  0  0  0  0
   23.4649   -4.8610   57.1234 C   0  0  0  0  0  0  0  0  0  0  0  0
   24.2828   -4.7504   55.8592 C   0  0  0  0  0  0  0  0  0  0  0  0
   24.2761   -3.6714   55.2095 O   0  0  0  0  0  0  0  0  0  0  0  0
   25.1163   -5.8441   55.4335 N   0  0  0  0  0  0  0  0  0  0  0  0
   25.1451   -6.6918   56.0486 H   0  0  0  0  0  0  0  0  0  0  0  0
   26.1146   -5.6910   54.3620 C   0  0  0  0  0  0  0  0  0  0  0  0
   26.6393   -7.0295   53.8829 C   0  0  0  0  0  0  0  0  0  0  0  0
   27.5035   -7.6372   54.5718 O   0  0  0  0  0  0  0  0  0  0  0  0
   26.2902   -7.5682   52.5933 N   0  0  0  0  0  0  0  0  0  0  0  0
   27.0653   -8.0378   52.0677 H   0  0  0  0  0  0  0  0  0  0  0  0
   24.9239   -7.8206   52.0997 C   0  0  0  0  0  0  0  0  0  0  0  0
   24.4539   -6.7201   51.1752 C   0  0  0  0  0  0  0  0  0  0  0  0
   25.2310   -6.2580   50.3034 O   0  0  0  0  0  0  0  0  0  0  0  0
   23.1748   -6.0966   51.3538 N   0  0  0  0  0  0  0  0  0  0  0  0
   21.9839   -6.5243   50.6406 C   0  0  0  0  0  0  0  0  0  0  0  0
   20.9999   -5.3694   50.7556 C   0  0  0  0  0  0  0  0  0  0  0  0
   21.5016   -4.5178   51.9198 C   0  0  0  0  0  0  0  0  0  0  0  0
   22.9952   -4.8245   52.0417 C   0  0  0  0  0  0  0  0  0  0  0  0
   23.8255   -3.7436   51.4056 C   0  0  0  0  0  0  0  0  0  0  0  0
   23.4301   -3.1981   50.1926 O   0  0  0  0  0  0  0  0  0  0  0  0
   24.8921   -3.3565   51.9542 O   0  0  0  0  0  0  0  0  0  0  0  0
   23.9829   -2.4801   49.7404 H   0  0  0  0  0  0  0  0  0  0  0  0
   24.8083   -9.2250   51.4729 C   0  0  0  0  0  0  0  0  0  0  0  0
   26.2624  -10.2634   51.8440 S   0  0  0  0  0  0  0  0  0  0  0  0
   26.1300  -10.1819   53.2380 H   0  0  0  0  0  0  0  0  0  0  0  0
   27.2685   -4.7881   54.8493 C   0  0  0  0  0  0  0  0  0  0  0  0
   27.9914   -4.1082   53.7151 C   0  0  0  0  0  0  0  0  0  0  0  0
   29.2617   -4.3902   53.2668 C   0  0  0  0  0  0  0  0  0  0  0  0
   29.5736   -3.5482   52.2627 N   0  0  0  0  0  0  0  0  0  0  0  0
   28.4827   -2.7631   52.1330 C   0  0  0  0  0  0  0  0  0  0  0  0
   27.5039   -3.0785   53.0007 N   0  0  0  0  0  0  0  0  0  0  0  0
   26.5867   -2.5944   53.1224 H   0  0  0  0  0  0  0  0  0  0  0  0
   23.6179   -3.5743   57.9621 C   0  0  0  0  0  0  0  0  0  0  0  0
   22.2714   -2.8745   58.2140 C   0  0  0  0  0  0  0  0  0  0  0  0
   22.0936   -1.6923   57.3019 C   0  0  0  0  0  0  0  0  0  0  0  0
   21.6120   -1.8561   56.1491 O   0  0  0  0  0  0  0  0  0  0  0  0
   22.4762   -0.3836   57.7297 N   0  0  0  0  0  0  0  0  0  0  0  0
   22.3115    0.4425   57.1122 H   0  0  0  0  0  0  0  0  0  0  0  0
   22.9341   -0.2303   58.6548 H   0  0  0  0  0  0  0  0  0  0  0  0
   19.8097   -6.5108   58.4442 C   0  0  0  0  0  0  0  0  0  0  0  0
   18.8793   -5.3222   58.7411 C   0  0  0  0  0  0  0  0  0  0  0  0
   18.3294   -4.6564   57.4668 C   0  0  0  0  0  0  0  0  0  0  0  0
   18.6704   -3.1590   57.3159 C   0  0  0  0  0  0  0  0  0  0  0  0
   18.6133   -2.7059   55.9239 N   0  0  0  0  0  0  0  0  0  0  0  0
   17.6122   -2.6857   55.6153 H   0  0  0  0  0  0  0  0  0  0  0  0
   19.1207   -3.3859   55.3213 H   0  0  0  0  0  0  0  0  0  0  0  0
   17.3477  -11.9471   56.0769 C   0  0  0  0  0  0  0  0  0  0  0  0
   16.2772  -11.6967   55.4615 O   0  0  0  0  0  0  0  0  0  0  0  0
   17.7870  -11.0823   57.1274 N   0  0  0  0  0  0  0  0  0  0  0  0
   18.2440  -11.5032   57.9698 H   0  0  0  0  0  0  0  0  0  0  0  0
   18.2707  -13.0190   55.5754 C   0  0  0  0  0  0  0  0  0  0  0  0
   18.3403  -14.4202   53.4481 C   0  0  0  0  0  0  0  0  0  0  0  0
   17.9189  -14.3892   52.2552 O   0  0  0  0  0  0  0  0  0  0  0  0
   17.6124  -13.7001   54.4575 N   0  0  0  0  0  0  0  0  0  0  0  0
   16.6497  -13.3920   54.2009 H   0  0  0  0  0  0  0  0  0  0  0  0
   19.5288  -15.2855   53.8105 C   0  0  0  0  0  0  0  0  0  0  0  0
   21.8494  -15.8626   52.9733 C   0  0  0  0  0  0  0  0  0  0  0  0
   22.3029  -15.8930   54.1507 O   0  0  0  0  0  0  0  0  0  0  0  0
   20.5291  -15.3476   52.7348 N   0  0  0  0  0  0  0  0  0  0  0  0
   20.2869  -15.0608   51.7619 H   0  0  0  0  0  0  0  0  0  0  0  0
   22.6683  -16.3808   51.8148 C   0  0  0  0  0  0  0  0  0  0  0  0
   23.2864  -17.7269   52.1908 C   0  0  0  0  0  0  0  0  0  0  0  0
   24.3896  -15.5149   50.1375 C   0  0  0  0  0  0  0  0  0  0  0  0
   24.1998  -16.5063   49.3819 O   0  0  0  0  0  0  0  0  0  0  0  0
   23.7217  -15.4342   51.4086 N   0  0  0  0  0  0  0  0  0  0  0  0
   23.9862  -14.6380   52.0265 H   0  0  0  0  0  0  0  0  0  0  0  0
   25.3244  -14.4151   49.6975 C   0  0  0  0  0  0  0  0  0  0  0  0
   24.0007  -12.4582   48.7732 C   0  0  0  0  0  0  0  0  0  0  0  0
   24.4837  -11.3827   48.3211 O   0  0  0  0  0  0  0  0  0  0  0  0
   24.7293  -13.6761   48.5793 N   0  0  0  0  0  0  0  0  0  0  0  0
   25.1816  -13.7865   47.6493 H   0  0  0  0  0  0  0  0  0  0  0  0
   22.5982  -12.4306   49.3578 C   0  0  0  0  0  0  0  0  0  0  0  0
   20.9702  -14.3137   49.0103 C   0  0  0  0  0  0  0  0  0  0  0  0
   20.3633  -14.2690   50.1158 O   0  0  0  0  0  0  0  0  0  0  0  0
   21.6293  -13.1412   48.5203 N   0  0  0  0  0  0  0  0  0  0  0  0
   21.3726  -12.7833   47.5756 H   0  0  0  0  0  0  0  0  0  0  0  0
   19.7914  -16.3226   48.2659 N   0  0  0  0  0  0  0  0  0  0  0  0
   21.0816  -15.6202   48.2532 C   0  0  0  0  0  0  0  0  0  0  0  0
   19.9307  -17.2743   47.8521 H   0  0  0  0  0  0  0  0  0  0  0  0
   19.5108  -16.4842   49.2594 H   0  0  0  0  0  0  0  0  0  0  0  0
   21.5925  -15.4042   46.8114 C   0  0  0  0  0  0  0  0  0  0  0  0
   22.9948  -15.2707   46.8423 O   0  0  0  0  0  0  0  0  0  0  0  0
   21.2131  -16.5577   45.8719 C   0  0  0  0  0  0  0  0  0  0  0  0
   23.2660  -14.8854   45.9704 H   0  0  0  0  0  0  0  0  0  0  0  0
   22.1318  -10.9914   49.6375 C   0  0  0  0  0  0  0  0  0  0  0  0
   20.7705  -10.9021   50.3503 C   0  0  0  0  0  0  0  0  0  0  0  0
   20.8998  -11.0267   51.8475 C   0  0  0  0  0  0  0  0  0  0  0  0
   21.1089  -12.1412   52.3940 O   0  0  0  0  0  0  0  0  0  0  0  0
   20.7997   -9.8604   52.6624 N   0  0  0  0  0  0  0  0  0  0  0  0
   20.9059   -9.9303   53.6967 H   0  0  0  0  0  0  0  0  0  0  0  0
   20.6681   -8.9167   52.2292 H   0  0  0  0  0  0  0  0  0  0  0  0
   26.7759  -14.8718   49.3615 C   0  0  0  0  0  0  0  0  0  0  0  0
   27.9421  -14.1074   50.0222 C   0  0  0  0  0  0  0  0  0  0  0  0
   28.4218  -12.8603   49.3154 C   0  0  0  0  0  0  0  0  0  0  0  0
   27.6665  -12.3318   48.4613 O   0  0  0  0  0  0  0  0  0  0  0  0
   29.7118  -12.2819   49.5405 N   0  0  0  0  0  0  0  0  0  0  0  0
   30.4549  -12.7593   50.0909 H   0  0  0  0  0  0  0  0  0  0  0  0
   29.9771  -11.3980   49.0449 H   0  0  0  0  0  0  0  0  0  0  0  0
   19.0350  -16.7008   54.1757 C   0  0  0  0  0  0  0  0  0  0  0  0
   18.0170  -16.6427   55.1434 O   0  0  0  0  0  0  0  0  0  0  0  0
   17.1609  -16.5364   54.6460 H   0  0  0  0  0  0  0  0  0  0  0  0
   18.6465  -14.0192   56.6841 C   0  0  0  0  0  0  0  0  0  0  0  0
   20.1108  -13.9238   57.0070 C   0  0  0  0  0  0  0  0  0  0  0  0
   20.8087  -12.7633   57.2867 C   0  0  0  0  0  0  0  0  0  0  0  0
   22.1118  -13.0653   57.4627 N   0  0  0  0  0  0  0  0  0  0  0  0
   22.1722  -14.4058   57.2867 C   0  0  0  0  0  0  0  0  0  0  0  0
   20.9694  -14.9542   57.0174 N   0  0  0  0  0  0  0  0  0  0  0  0
   20.7688  -15.9587   56.8221 H   0  0  0  0  0  0  0  0  0  0  0  0
 95 96  1  0  0  0
 96 91  1  0  0  0
 91 92  2  0  0  0
 91 93  1  0  0  0
 93 90  1  0  0  0
 90103  1  0  0  0
103104  1  0  0  0
104105  1  0  0  0
105106  2  0  0  0
105107  1  0  0  0
 90 86  1  0  0  0
 86 87  2  0  0  0
 86 88  1  0  0  0
 88 85  1  0  0  0
 85110  1  0  0  0
110111  1  0  0  0
111112  1  0  0  0
112113  2  0  0  0
112114  1  0  0  0
 85 81  1  0  0  0
 81 82  2  0  0  0
 81 83  1  0  0  0
 83 79  1  0  0  0
 79 80  1  0  0  0
 79 75  1  0  0  0
 75 76  2  0  0  0
 75 77  1  0  0  0
 77 74  1  0  0  0
 74117  1  0  0  0
117118  1  0  0  0
 74 70  1  0  0  0
 70 71  2  0  0  0
 70 72  1  0  0  0
 72 69  1  0  0  0
 69120  1  0  0  0
120121  1  0  0  0
121122  2  0  0  0
122123  1  0  0  0
123124  2  0  0  0
124125  1  0  0  0
 69 65  1  0  0  0
 65 66  2  0  0  0
 65 67  1  0  0  0
 67  1  1  0  0  0
  1  2  1  0  0  0
  2  3  2  0  0  0
  3  4  1  0  0  0
  4  5  2  0  0  0
  5  6  1  0  0  0
  5  7  1  0  0  0
  7  8  2  0  0  0
  1 10  1  0  0  0
 10 11  2  0  0  0
 10 12  1  0  0  0
 12 14  1  0  0  0
 14 58  1  0  0  0
 58 59  1  0  0  0
 59 60  1  0  0  0
 60 61  1  0  0  0
 61 62  1  0  0  0
 14 15  1  0  0  0
 15 16  2  0  0  0
 15 17  1  0  0  0
 17 19  1  0  0  0
 19 51  1  0  0  0
 51 52  1  0  0  0
 52 53  1  0  0  0
 53 54  2  0  0  0
 53 55  1  0  0  0
 19 20  1  0  0  0
 20 21  2  0  0  0
 20 22  1  0  0  0
 22 24  1  0  0  0
 24 44  1  0  0  0
 44 45  1  0  0  0
 45 46  2  0  0  0
 46 47  1  0  0  0
 47 48  2  0  0  0
 48 49  1  0  0  0
 24 25  1  0  0  0
 25 26  2  0  0  0
 25 27  1  0  0  0
 27 29  1  0  0  0
 29 41  1  0  0  0
 41 42  1  0  0  0
 29 30  1  0  0  0
 30 31  2  0  0  0
 30 32  1  0  0  0
 32 33  1  0  0  0
 33 34  1  0  0  0
 34 35  1  0  0  0
 35 36  1  0  0  0
 36 37  1  0  0  0
 37 38  1  0  0  0
 37 39  2  0  0  0
 96 99  1  0  0  0
 99100  1  0  0  0
 99101  1  0  0  0
125121  1  0  0  0
  8  2  1  0  0  0
 49 45  1  0  0  0
 36 32  1  0  0  0
 95 97  1  0  0  0
 95 98  1  0  0  0
 93 94  1  0  0  0
107108  1  0  0  0
107109  1  0  0  0
 88 89  1  0  0  0
114115  1  0  0  0
114116  1  0  0  0
 83 84  1  0  0  0
 77 78  1  0  0  0
118119  1  0  0  0
 72 73  1  0  0  0
125126  1  0  0  0
 67 68  1  0  0  0
  6  9  1  0  0  0
 12 13  1  0  0  0
 62 63  1  0  0  0
 62 64  1  0  0  0
 17 18  1  0  0  0
 55 56  1  0  0  0
 55 57  1  0  0  0
 22 23  1  0  0  0
 49 50  1  0  0  0
 27 28  1  0  0  0
 42 43  1  0  0  0
 38 40  1  0  0  0
100102  1  0  0  0
M  END
> <minimizedAffinity>
-7.52719

$$$$



126129  0  0  0  0  0  0  0  0999 V2000
   18.4394   -9.4628   57.5214 C   0  0  0  0  0  0  0  0  0  0  0  0
   17.1965   -8.7531   58.0063 C   0  0  0  0  0  0  0  0  0  0  0  0
   16.2964   -9.3870   58.8818 C   0  0  0  0  0  0  0  0  0  0  0  0
   15.1770   -8.7029   59.3617 C   0  0  0  0  0  0  0  0  0  0  0  0
   14.9296   -7.3844   58.9590 C   0  0  0  0  0  0  0  0  0  0  0  0
   13.8111   -6.7091   59.4458 O   0  0  0  0  0  0  0  0  0  0  0  0
   15.8117   -6.7516   58.0750 C   0  0  0  0  0  0  0  0  0  0  0  0
   16.9430   -7.4303   57.6100 C   0  0  0  0  0  0  0  0  0  0  0  0
   13.5875   -5.7711   59.1342 H   0  0  0  0  0  0  0  0  0  0  0  0
   19.6676   -8.9050   58.1919 C   0  0  0  0  0  0  0  0  0  0  0  0
   19.5904   -8.3819   59.3347 O   0  0  0  0  0  0  0  0  0  0  0  0
   20.9272   -8.9302   57.5067 N   0  0  0  0  0  0  0  0  0  0  0  0
   21.1652   -9.8095   56.9921 H   0  0  0  0  0  0  0  0  0  0  0  0
   21.7073   -7.7318   57.1565 C   0  0  0  0  0  0  0  0  0  0  0  0
   21.1448   -7.1291   55.8909 C   0  0  0  0  0  0  0  0  0  0  0  0
   20.3418   -7.7868   55.1690 O   0  0  0  0  0  0  0  0  0  0  0  0
   21.5385   -5.8052   55.5039 N   0  0  0  0  0  0  0  0  0  0  0  0
   22.0248   -5.2109   56.2137 H   0  0  0  0  0  0  0  0  0  0  0  0
   21.6355   -5.4101   54.0940 C   0  0  0  0  0  0  0  0  0  0  0  0
   21.6964   -3.9053   53.9872 C   0  0  0  0  0  0  0  0  0  0  0  0
   21.8143   -3.3690   52.8537 O   0  0  0  0  0  0  0  0  0  0  0  0
   21.5543   -3.0859   55.1622 N   0  0  0  0  0  0  0  0  0  0  0  0
   21.3832   -3.5779   56.0713 H   0  0  0  0  0  0  0  0  0  0  0  0
   21.3532   -1.6298   55.0763 C   0  0  0  0  0  0  0  0  0  0  0  0
   22.3916   -0.8677   55.8745 C   0  0  0  0  0  0  0  0  0  0  0  0
   22.0795   -0.3924   57.0003 O   0  0  0  0  0  0  0  0  0  0  0  0
   23.6853   -0.5434   55.3300 N   0  0  0  0  0  0  0  0  0  0  0  0
   24.0505    0.4125   55.5546 H   0  0  0  0  0  0  0  0  0  0  0  0
   24.6660   -1.5046   54.7931 C   0  0  0  0  0  0  0  0  0  0  0  0
   24.8940   -1.2988   53.3124 C   0  0  0  0  0  0  0  0  0  0  0  0
   23.9513   -0.9075   52.5805 O   0  0  0  0  0  0  0  0  0  0  0  0
   26.1355   -1.6648   52.6947 N   0  0  0  0  0  0  0  0  0  0  0  0
   27.2201   -0.7210   52.4874 C   0  0  0  0  0  0  0  0  0  0  0  0
   28.1217   -1.3562   51.4391 C   0  0  0  0  0  0  0  0  0  0  0  0
   27.7583   -2.8395   51.4303 C   0  0  0  0  0  0  0  0  0  0  0  0
   26.3323   -2.9182   51.9780 C   0  0  0  0  0  0  0  0  0  0  0  0
   25.3307   -3.0684   50.8660 C   0  0  0  0  0  0  0  0  0  0  0  0
   24.0810   -3.6077   51.1354 O   0  0  0  0  0  0  0  0  0  0  0  0
   25.6345   -2.7362   49.6887 O   0  0  0  0  0  0  0  0  0  0  0  0
   23.3978   -3.7312   50.3981 H   0  0  0  0  0  0  0  0  0  0  0  0
   25.9724   -1.4843   55.6127 C   0  0  0  0  0  0  0  0  0  0  0  0
   26.5010   -3.1611   56.1019 S   0  0  0  0  0  0  0  0  0  0  0  0
   26.5848   -3.6597   54.7935 H   0  0  0  0  0  0  0  0  0  0  0  0
   19.9257   -1.2719   55.5436 C   0  0  0  0  0  0  0  0  0  0  0  0
   19.3043   -2.3536   56.3893 C   0  0  0  0  0  0  0  0  0  0  0  0
   19.5103   -2.5625   57.7339 C   0  0  0  0  0  0  0  0  0  0  0  0
   18.8118   -3.6456   58.1256 N   0  0  0  0  0  0  0  0  0  0  0  0
   18.2042   -4.0772   56.9996 C   0  0  0  0  0  0  0  0  0  0  0  0
   18.4830   -3.3132   55.9278 N   0  0  0  0  0  0  0  0  0  0  0  0
   18.1678   -3.4650   54.9439 H   0  0  0  0  0  0  0  0  0  0  0  0
   22.8945   -6.0332   53.4547 C   0  0  0  0  0  0  0  0  0  0  0  0
   22.5546   -7.1748   52.4812 C   0  0  0  0  0  0  0  0  0  0  0  0
   22.8167   -6.7712   51.0566 C   0  0  0  0  0  0  0  0  0  0  0  0
   23.6290   -7.4327   50.3564 O   0  0  0  0  0  0  0  0  0  0  0  0
   22.1577   -5.6356   50.4927 N   0  0  0  0  0  0  0  0  0  0  0  0
   22.3072   -5.3827   49.4904 H   0  0  0  0  0  0  0  0  0  0  0  0
   21.5285   -5.0351   51.0692 H   0  0  0  0  0  0  0  0  0  0  0  0
   23.2316   -7.9963   57.0626 C   0  0  0  0  0  0  0  0  0  0  0  0
   23.6088   -8.8378   55.8312 C   0  0  0  0  0  0  0  0  0  0  0  0
   25.0290   -8.5442   55.3147 C   0  0  0  0  0  0  0  0  0  0  0  0
   25.5885   -9.5848   54.3220 C   0  0  0  0  0  0  0  0  0  0  0  0
   26.9028   -9.2100   53.7945 N   0  0  0  0  0  0  0  0  0  0  0  0
   27.6134   -9.3028   54.5589 H   0  0  0  0  0  0  0  0  0  0  0  0
   26.8808   -8.2130   53.4969 H   0  0  0  0  0  0  0  0  0  0  0  0
   17.9261  -11.7737   56.6827 C   0  0  0  0  0  0  0  0  0  0  0  0
   16.9150  -11.4909   55.9863 O   0  0  0  0  0  0  0  0  0  0  0  0
   18.3254  -10.9069   57.7475 N   0  0  0  0  0  0  0  0  0  0  0  0
   18.7013  -11.3295   58.6282 H   0  0  0  0  0  0  0  0  0  0  0  0
   18.8352  -12.8937   56.2689 C   0  0  0  0  0  0  0  0  0  0  0  0
   18.5113  -13.2523   53.7668 C   0  0  0  0  0  0  0  0  0  0  0  0
   17.5809  -13.3173   52.9115 O   0  0  0  0  0  0  0  0  0  0  0  0
   18.2178  -13.5856   55.1344 N   0  0  0  0  0  0  0  0  0  0  0  0
   17.3220  -14.0917   55.3041 H   0  0  0  0  0  0  0  0  0  0  0  0
   19.9238  -12.9286   53.3280 C   0  0  0  0  0  0  0  0  0  0  0  0
   20.7593  -10.8330   52.1749 C   0  0  0  0  0  0  0  0  0  0  0  0
   21.1144  -10.3285   53.2759 O   0  0  0  0  0  0  0  0  0  0  0  0
   19.9602  -12.0275   52.1668 N   0  0  0  0  0  0  0  0  0  0  0  0
   19.4413  -12.2601   51.2927 H   0  0  0  0  0  0  0  0  0  0  0  0
   21.1815  -10.2094   50.8657 C   0  0  0  0  0  0  0  0  0  0  0  0
   19.9410   -9.8739   50.0388 C   0  0  0  0  0  0  0  0  0  0  0  0
   23.4540  -11.3073   50.4703 C   0  0  0  0  0  0  0  0  0  0  0  0
   23.9785  -10.6298   51.3954 O   0  0  0  0  0  0  0  0  0  0  0  0
   22.0834  -11.0840   50.0962 N   0  0  0  0  0  0  0  0  0  0  0  0
   21.7329  -11.6096   49.2676 H   0  0  0  0  0  0  0  0  0  0  0  0
   24.2769  -12.3526   49.7583 C   0  0  0  0  0  0  0  0  0  0  0  0
   26.7249  -12.8820   49.3547 C   0  0  0  0  0  0  0  0  0  0  0  0
   27.4173  -12.4904   48.3741 O   0  0  0  0  0  0  0  0  0  0  0  0
   25.7011  -12.0193   49.8640 N   0  0  0  0  0  0  0  0  0  0  0  0
   25.9454  -11.0093   49.9092 H   0  0  0  0  0  0  0  0  0  0  0  0
   27.1182  -14.1775   50.0451 C   0  0  0  0  0  0  0  0  0  0  0  0
   29.2685  -15.2129   50.8332 C   0  0  0  0  0  0  0  0  0  0  0  0
   28.8159  -16.2875   51.3159 O   0  0  0  0  0  0  0  0  0  0  0  0
   28.5234  -14.5255   49.8226 N   0  0  0  0  0  0  0  0  0  0  0  0
   28.9898  -14.3182   48.9138 H   0  0  0  0  0  0  0  0  0  0  0  0
   31.1349  -13.6948   50.3956 N   0  0  0  0  0  0  0  0  0  0  0  0
   30.5413  -14.6054   51.3839 C   0  0  0  0  0  0  0  0  0  0  0  0
   32.0735  -13.3931   50.7482 H   0  0  0  0  0  0  0  0  0  0  0  0
   31.3209  -14.2317   49.5187 H   0  0  0  0  0  0  0  0  0  0  0  0
   30.2983  -13.8934   52.7332 C   0  0  0  0  0  0  0  0  0  0  0  0
   31.5312  -13.7536   53.4007 O   0  0  0  0  0  0  0  0  0  0  0  0
   29.6538  -12.5104   52.5628 C   0  0  0  0  0  0  0  0  0  0  0  0
   31.3235  -13.5375   54.3454 H   0  0  0  0  0  0  0  0  0  0  0  0
   26.1934  -15.3375   49.6372 C   0  0  0  0  0  0  0  0  0  0  0  0
   25.3051  -15.8611   50.7798 C   0  0  0  0  0  0  0  0  0  0  0  0
   24.0267  -16.4796   50.2727 C   0  0  0  0  0  0  0  0  0  0  0  0
   24.0313  -17.2922   49.3114 O   0  0  0  0  0  0  0  0  0  0  0  0
   22.7887  -16.1527   50.9011 N   0  0  0  0  0  0  0  0  0  0  0  0
   21.9006  -16.5876   50.5723 H   0  0  0  0  0  0  0  0  0  0  0  0
   22.7632  -15.5125   51.7288 H   0  0  0  0  0  0  0  0  0  0  0  0
   23.8705  -12.6236   48.2786 C   0  0  0  0  0  0  0  0  0  0  0  0
   23.1341  -13.9427   47.9643 C   0  0  0  0  0  0  0  0  0  0  0  0
   21.6361  -13.9474   48.1671 C   0  0  0  0  0  0  0  0  0  0  0  0
   21.1942  -14.0219   49.3411 O   0  0  0  0  0  0  0  0  0  0  0  0
   20.7010  -13.9173   47.0837 N   0  0  0  0  0  0  0  0  0  0  0  0
   20.9861  -14.0373   46.0900 H   0  0  0  0  0  0  0  0  0  0  0  0
   19.6736  -13.8899   47.2864 H   0  0  0  0  0  0  0  0  0  0  0  0
   20.6744  -14.2411   53.0211 C   0  0  0  0  0  0  0  0  0  0  0  0
   19.8962  -15.3579   53.3725 O   0  0  0  0  0  0  0  0  0  0  0  0
   19.3288  -15.5664   52.5812 H   0  0  0  0  0  0  0  0  0  0  0  0
   19.1073  -13.8713   57.4270 C   0  0  0  0  0  0  0  0  0  0  0  0
   20.5736  -13.9090   57.7526 C   0  0  0  0  0  0  0  0  0  0  0  0
   21.1457  -13.5877   58.9698 C   0  0  0  0  0  0  0  0  0  0  0  0
   22.4876  -13.6779   58.8626 N   0  0  0  0  0  0  0  0  0  0  0  0
   22.6971  -14.0546   57.5797 C   0  0  0  0  0  0  0  0  0  0  0  0
   21.5511  -14.2108   56.8851 N   0  0  0  0  0  0  0  0  0  0  0  0
   21.4589  -14.4719   55.8798 H   0  0  0  0  0  0  0  0  0  0  0  0
 95 96  1  0  0  0
 96 91  1  0  0  0
 91 92  2  0  0  0
 91 93  1  0  0  0
 93 90  1  0  0  0
 90103  1  0  0  0
103104  1  0  0  0
104105  1  0  0  0
105106  2  0  0  0
105107  1  0  0  0
 90 86  1  0  0  0
 86 87  2  0  0  0
 86 88  1  0  0  0
 88 85  1  0  0  0
 85110  1  0  0  0
110111  1  0  0  0
111112  1  0  0  0
112113  2  0  0  0
112114  1  0  0  0
 85 81  1  0  0  0
 81 82  2  0  0  0
 81 83  1  0  0  0
 83 79  1  0  0  0
 79 80  1  0  0  0
 79 75  1  0  0  0
 75 76  2  0  0  0
 75 77  1  0  0  0
 77 74  1  0  0  0
 74117  1  0  0  0
117118  1  0  0  0
 74 70  1  0  0  0
 70 71  2  0  0  0
 70 72  1  0  0  0
 72 69  1  0  0  0
 69120  1  0  0  0
120121  1  0  0  0
121122  2  0  0  0
122123  1  0  0  0
123124  2  0  0  0
124125  1  0  0  0
 69 65  1  0  0  0
 65 66  2  0  0  0
 65 67  1  0  0  0
 67  1  1  0  0  0
  1  2  1  0  0  0
  2  3  2  0  0  0
  3  4  1  0  0  0
  4  5  2  0  0  0
  5  6  1  0  0  0
  5  7  1  0  0  0
  7  8  2  0  0  0
  1 10  1  0  0  0
 10 11  2  0  0  0
 10 12  1  0  0  0
 12 14  1  0  0  0
 14 58  1  0  0  0
 58 59  1  0  0  0
 59 60  1  0  0  0
 60 61  1  0  0  0
 61 62  1  0  0  0
 14 15  1  0  0  0
 15 16  2  0  0  0
 15 17  1  0  0  0
 17 19  1  0  0  0
 19 51  1  0  0  0
 51 52  1  0  0  0
 52 53  1  0  0  0
 53 54  2  0  0  0
 53 55  1  0  0  0
 19 20  1  0  0  0
 20 21  2  0  0  0
 20 22  1  0  0  0
 22 24  1  0  0  0
 24 44  1  0  0  0
 44 45  1  0  0  0
 45 46  2  0  0  0
 46 47  1  0  0  0
 47 48  2  0  0  0
 48 49  1  0  0  0
 24 25  1  0  0  0
 25 26  2  0  0  0
 25 27  1  0  0  0
 27 29  1  0  0  0
 29 41  1  0  0  0
 41 42  1  0  0  0
 29 30  1  0  0  0
 30 31  2  0  0  0
 30 32  1  0  0  0
 32 33  1  0  0  0
 33 34  1  0  0  0
 34 35  1  0  0  0
 35 36  1  0  0  0
 36 37  1  0  0  0
 37 38  1  0  0  0
 37 39  2  0  0  0
 96 99  1  0  0  0
 99100  1  0  0  0
 99101  1  0  0  0
125121  1  0  0  0
  8  2  1  0  0  0
 49 45  1  0  0  0
 36 32  1  0  0  0
 95 97  1  0  0  0
 95 98  1  0  0  0
 93 94  1  0  0  0
107108  1  0  0  0
107109  1  0  0  0
 88 89  1  0  0  0
114115  1  0  0  0
114116  1  0  0  0
 83 84  1  0  0  0
 77 78  1  0  0  0
118119  1  0  0  0
 72 73  1  0  0  0
125126  1  0  0  0
 67 68  1  0  0  0
  6  9  1  0  0  0
 12 13  1  0  0  0
 62 63  1  0  0  0
 62 64  1  0  0  0
 17 18  1  0  0  0
 55 56  1  0  0  0
 55 57  1  0  0  0
 22 23  1  0  0  0
 49 50  1  0  0  0
 27 28  1  0  0  0
 42 43  1  0  0  0
 38 40  1  0  0  0
100102  1  0  0  0
M  END
> <minimizedAffinity>
-7.51166

$$$$



126129  0  0  0  0  0  0  0  0999 V2000
   21.2323   -4.0019   55.0030 C   0  0  0  0  0  0  0  0  0  0  0  0
   21.4855   -2.6641   55.6586 C   0  0  0  0  0  0  0  0  0  0  0  0
   22.6350   -2.4470   56.4396 C   0  0  0  0  0  0  0  0  0  0  0  0
   22.8821   -1.1913   56.9995 C   0  0  0  0  0  0  0  0  0  0  0  0
   21.9760   -0.1412   56.8049 C   0  0  0  0  0  0  0  0  0  0  0  0
   22.2330    1.1092   57.3656 O   0  0  0  0  0  0  0  0  0  0  0  0
   20.8211   -0.3534   56.0425 C   0  0  0  0  0  0  0  0  0  0  0  0
   20.5838   -1.6054   55.4658 C   0  0  0  0  0  0  0  0  0  0  0  0
   21.5708    1.8710   57.2758 H   0  0  0  0  0  0  0  0  0  0  0  0
   20.1333   -4.7455   55.7159 C   0  0  0  0  0  0  0  0  0  0  0  0
   18.9263   -4.5348   55.4259 O   0  0  0  0  0  0  0  0  0  0  0  0
   20.4608   -5.6691   56.7631 N   0  0  0  0  0  0  0  0  0  0  0  0
   21.2742   -6.3045   56.5925 H   0  0  0  0  0  0  0  0  0  0  0  0
   20.0107   -5.5375   58.1586 C   0  0  0  0  0  0  0  0  0  0  0  0
   18.6720   -6.2199   58.3120 C   0  0  0  0  0  0  0  0  0  0  0  0
   18.0755   -6.2187   59.4269 O   0  0  0  0  0  0  0  0  0  0  0  0
   18.0843   -6.8833   57.1843 N   0  0  0  0  0  0  0  0  0  0  0  0
   18.4851   -6.6901   56.2379 H   0  0  0  0  0  0  0  0  0  0  0  0
   17.2382   -8.0717   57.3428 C   0  0  0  0  0  0  0  0  0  0  0  0
   18.1034   -9.3016   57.4782 C   0  0  0  0  0  0  0  0  0  0  0  0
   18.2800   -9.8126   58.6157 O   0  0  0  0  0  0  0  0  0  0  0  0
   18.6686   -9.9260   56.3107 N   0  0  0  0  0  0  0  0  0  0  0  0
   18.4305   -9.5064   55.3806 H   0  0  0  0  0  0  0  0  0  0  0  0
   19.2987  -11.2556   56.3669 C   0  0  0  0  0  0  0  0  0  0  0  0
   20.6341  -11.2789   55.6508 C   0  0  0  0  0  0  0  0  0  0  0  0
   20.6591  -11.3050   54.3901 O   0  0  0  0  0  0  0  0  0  0  0  0
   21.8789  -11.4159   56.3627 N   0  0  0  0  0  0  0  0  0  0  0  0
   22.5941  -12.0400   55.9193 H   0  0  0  0  0  0  0  0  0  0  0  0
   22.3645  -10.5324   57.4387 C   0  0  0  0  0  0  0  0  0  0  0  0
   22.1473  -11.1462   58.8035 C   0  0  0  0  0  0  0  0  0  0  0  0
   21.2020  -10.7473   59.5279 O   0  0  0  0  0  0  0  0  0  0  0  0
   23.0782  -12.0909   59.3491 N   0  0  0  0  0  0  0  0  0  0  0  0
   22.9063  -13.5278   59.2239 C   0  0  0  0  0  0  0  0  0  0  0  0
   23.8091  -14.1427   60.2832 C   0  0  0  0  0  0  0  0  0  0  0  0
   24.8046  -13.0474   60.6595 C   0  0  0  0  0  0  0  0  0  0  0  0
   24.1207  -11.7272   60.3001 C   0  0  0  0  0  0  0  0  0  0  0  0
   23.5350  -11.0692   61.5193 C   0  0  0  0  0  0  0  0  0  0  0  0
   22.4254  -11.6293   62.1358 O   0  0  0  0  0  0  0  0  0  0  0  0
   24.0288   -9.9971   61.9612 O   0  0  0  0  0  0  0  0  0  0  0  0
   22.0068  -11.1939   62.9487 H   0  0  0  0  0  0  0  0  0  0  0  0
   23.8272  -10.1085   57.1942 C   0  0  0  0  0  0  0  0  0  0  0  0
   23.9482   -8.6884   56.0545 S   0  0  0  0  0  0  0  0  0  0  0  0
   23.1635   -7.8263   56.8346 H   0  0  0  0  0  0  0  0  0  0  0  0
   18.3389  -12.3129   55.7796 C   0  0  0  0  0  0  0  0  0  0  0  0
   18.2509  -13.5530   56.6316 C   0  0  0  0  0  0  0  0  0  0  0  0
   17.8773  -13.6134   57.9547 C   0  0  0  0  0  0  0  0  0  0  0  0
   17.9568  -14.8893   58.3791 N   0  0  0  0  0  0  0  0  0  0  0  0
   18.3905  -15.5748   57.2996 C   0  0  0  0  0  0  0  0  0  0  0  0
   18.5781  -14.7914   56.2220 N   0  0  0  0  0  0  0  0  0  0  0  0
   18.9451  -15.0788   55.2876 H   0  0  0  0  0  0  0  0  0  0  0  0
   16.3413   -7.9209   58.5898 C   0  0  0  0  0  0  0  0  0  0  0  0
   15.0307   -7.1760   58.2834 C   0  0  0  0  0  0  0  0  0  0  0  0
   13.9118   -7.6585   59.1646 C   0  0  0  0  0  0  0  0  0  0  0  0
   13.5190   -8.8529   59.0827 O   0  0  0  0  0  0  0  0  0  0  0  0
   13.2830   -6.7685   60.0891 N   0  0  0  0  0  0  0  0  0  0  0  0
   12.5361   -7.1161   60.7311 H   0  0  0  0  0  0  0  0  0  0  0  0
   13.5473   -5.7600   60.1325 H   0  0  0  0  0  0  0  0  0  0  0  0
   19.9922   -4.0720   58.6629 C   0  0  0  0  0  0  0  0  0  0  0  0
   21.1653   -3.7591   59.6077 C   0  0  0  0  0  0  0  0  0  0  0  0
   20.7316   -2.9958   60.8722 C   0  0  0  0  0  0  0  0  0  0  0  0
   21.0684   -3.6984   62.2041 C   0  0  0  0  0  0  0  0  0  0  0  0
   19.8937   -4.3086   62.8317 N   0  0  0  0  0  0  0  0  0  0  0  0
   19.6026   -5.1418   62.2670 H   0  0  0  0  0  0  0  0  0  0  0  0
   19.1081   -3.6261   62.8242 H   0  0  0  0  0  0  0  0  0  0  0  0
   21.9549   -3.5734   52.6362 C   0  0  0  0  0  0  0  0  0  0  0  0
   22.8189   -2.6869   52.8705 O   0  0  0  0  0  0  0  0  0  0  0  0
   20.9131   -3.8238   53.5831 N   0  0  0  0  0  0  0  0  0  0  0  0
   19.9544   -4.0516   53.2301 H   0  0  0  0  0  0  0  0  0  0  0  0
   22.1339   -4.5109   51.4781 C   0  0  0  0  0  0  0  0  0  0  0  0
   21.0034   -6.7298   50.9374 C   0  0  0  0  0  0  0  0  0  0  0  0
   20.0337   -7.1819   50.2617 O   0  0  0  0  0  0  0  0  0  0  0  0
   20.9491   -5.3696   51.4001 N   0  0  0  0  0  0  0  0  0  0  0  0
   20.0158   -4.9060   51.3620 H   0  0  0  0  0  0  0  0  0  0  0  0
   22.1446   -7.6436   51.3316 C   0  0  0  0  0  0  0  0  0  0  0  0
   23.8564   -8.9632   50.0097 C   0  0  0  0  0  0  0  0  0  0  0  0
   24.7862   -8.1966   50.3849 O   0  0  0  0  0  0  0  0  0  0  0  0
   22.4903   -8.6023   50.2718 N   0  0  0  0  0  0  0  0  0  0  0  0
   21.7462   -9.0769   49.7164 H   0  0  0  0  0  0  0  0  0  0  0  0
   24.1623  -10.2652   49.3081 C   0  0  0  0  0  0  0  0  0  0  0  0
   22.9096  -11.1403   49.2913 C   0  0  0  0  0  0  0  0  0  0  0  0
   26.6463  -10.8213   49.5242 C   0  0  0  0  0  0  0  0  0  0  0  0
   26.9188  -10.1538   48.4898 O   0  0  0  0  0  0  0  0  0  0  0  0
   25.2795  -10.9899   49.9386 N   0  0  0  0  0  0  0  0  0  0  0  0
   25.1106  -11.6245   50.7476 H   0  0  0  0  0  0  0  0  0  0  0  0
   27.7659  -11.4429   50.3222 C   0  0  0  0  0  0  0  0  0  0  0  0
   27.2148  -13.6367   49.1734 C   0  0  0  0  0  0  0  0  0  0  0  0
   27.1927  -13.8369   47.9269 O   0  0  0  0  0  0  0  0  0  0  0  0
   28.1694  -12.7111   49.7061 N   0  0  0  0  0  0  0  0  0  0  0  0
   29.1164  -12.7449   49.2774 H   0  0  0  0  0  0  0  0  0  0  0  0
   26.3379  -14.5053   50.0601 C   0  0  0  0  0  0  0  0  0  0  0  0
   27.7342  -15.9794   51.5414 C   0  0  0  0  0  0  0  0  0  0  0  0
   27.2423  -15.6717   52.6621 O   0  0  0  0  0  0  0  0  0  0  0  0
   26.9519  -15.8016   50.3558 N   0  0  0  0  0  0  0  0  0  0  0  0
   26.7953  -16.6235   49.7342 H   0  0  0  0  0  0  0  0  0  0  0  0
   29.7417  -16.0438   50.1468 N   0  0  0  0  0  0  0  0  0  0  0  0
   29.1718  -16.4435   51.4405 C   0  0  0  0  0  0  0  0  0  0  0  0
   30.6854  -16.4875   50.0517 H   0  0  0  0  0  0  0  0  0  0  0  0
   29.1572  -16.4555   49.3847 H   0  0  0  0  0  0  0  0  0  0  0  0
   30.0252  -15.9229   52.6183 C   0  0  0  0  0  0  0  0  0  0  0  0
   31.1673  -16.7380   52.7460 O   0  0  0  0  0  0  0  0  0  0  0  0
   30.4620  -14.4631   52.4303 C   0  0  0  0  0  0  0  0  0  0  0  0
   31.5541  -16.5526   53.6394 H   0  0  0  0  0  0  0  0  0  0  0  0
   24.9329  -14.6866   49.4599 C   0  0  0  0  0  0  0  0  0  0  0  0
   24.5557  -16.1527   49.1817 C   0  0  0  0  0  0  0  0  0  0  0  0
   24.5247  -16.4651   47.7068 C   0  0  0  0  0  0  0  0  0  0  0  0
   23.7540  -17.3451   47.2421 O   0  0  0  0  0  0  0  0  0  0  0  0
   25.3715  -15.7414   46.8159 N   0  0  0  0  0  0  0  0  0  0  0  0
   25.3461  -15.9347   45.7922 H   0  0  0  0  0  0  0  0  0  0  0  0
   25.9905  -14.9761   47.1718 H   0  0  0  0  0  0  0  0  0  0  0  0
   27.4776  -11.6225   51.8430 C   0  0  0  0  0  0  0  0  0  0  0  0
   27.5843  -10.3772   52.7480 C   0  0  0  0  0  0  0  0  0  0  0  0
   26.3116   -9.5943   52.9761 C   0  0  0  0  0  0  0  0  0  0  0  0
   25.2253  -10.2242   53.0248 O   0  0  0  0  0  0  0  0  0  0  0  0
   26.2822   -8.1679   53.0931 N   0  0  0  0  0  0  0  0  0  0  0  0
   27.1069   -7.5685   52.8844 H   0  0  0  0  0  0  0  0  0  0  0  0
   25.3738   -7.6820   53.2829 H   0  0  0  0  0  0  0  0  0  0  0  0
   21.7770   -8.3833   52.6347 C   0  0  0  0  0  0  0  0  0  0  0  0
   20.7580   -9.3245   52.4069 O   0  0  0  0  0  0  0  0  0  0  0  0
   21.2095  -10.1664   52.1259 H   0  0  0  0  0  0  0  0  0  0  0  0
   23.4156   -5.3536   51.6131 C   0  0  0  0  0  0  0  0  0  0  0  0
   24.5932   -4.6193   51.0371 C   0  0  0  0  0  0  0  0  0  0  0  0
   25.9252   -4.9277   51.2439 C   0  0  0  0  0  0  0  0  0  0  0  0
   26.6913   -4.0094   50.6194 N   0  0  0  0  0  0  0  0  0  0  0  0
   25.8026   -3.1650   50.0460 C   0  0  0  0  0  0  0  0  0  0  0  0
   24.5208   -3.5171   50.2764 N   0  0  0  0  0  0  0  0  0  0  0  0
   23.6658   -3.0111   49.9593 H   0  0  0  0  0  0  0  0  0  0  0  0
 95 96  1  0  0  0
 96 91  1  0  0  0
 91 92  2  0  0  0
 91 93  1  0  0  0
 93 90  1  0  0  0
 90103  1  0  0  0
103104  1  0  0  0
104105  1  0  0  0
105106  2  0  0  0
105107  1  0  0  0
 90 86  1  0  0  0
 86 87  2  0  0  0
 86 88  1  0  0  0
 88 85  1  0  0  0
 85110  1  0  0  0
110111  1  0  0  0
111112  1  0  0  0
112113  2  0  0  0
112114  1  0  0  0
 85 81  1  0  0  0
 81 82  2  0  0  0
 81 83  1  0  0  0
 83 79  1  0  0  0
 79 80  1  0  0  0
 79 75  1  0  0  0
 75 76  2  0  0  0
 75 77  1  0  0  0
 77 74  1  0  0  0
 74117  1  0  0  0
117118  1  0  0  0
 74 70  1  0  0  0
 70 71  2  0  0  0
 70 72  1  0  0  0
 72 69  1  0  0  0
 69120  1  0  0  0
120121  1  0  0  0
121122  2  0  0  0
122123  1  0  0  0
123124  2  0  0  0
124125  1  0  0  0
 69 65  1  0  0  0
 65 66  2  0  0  0
 65 67  1  0  0  0
 67  1  1  0  0  0
  1  2  1  0  0  0
  2  3  2  0  0  0
  3  4  1  0  0  0
  4  5  2  0  0  0
  5  6  1  0  0  0
  5  7  1  0  0  0
  7  8  2  0  0  0
  1 10  1  0  0  0
 10 11  2  0  0  0
 10 12  1  0  0  0
 12 14  1  0  0  0
 14 58  1  0  0  0
 58 59  1  0  0  0
 59 60  1  0  0  0
 60 61  1  0  0  0
 61 62  1  0  0  0
 14 15  1  0  0  0
 15 16  2  0  0  0
 15 17  1  0  0  0
 17 19  1  0  0  0
 19 51  1  0  0  0
 51 52  1  0  0  0
 52 53  1  0  0  0
 53 54  2  0  0  0
 53 55  1  0  0  0
 19 20  1  0  0  0
 20 21  2  0  0  0
 20 22  1  0  0  0
 22 24  1  0  0  0
 24 44  1  0  0  0
 44 45  1  0  0  0
 45 46  2  0  0  0
 46 47  1  0  0  0
 47 48  2  0  0  0
 48 49  1  0  0  0
 24 25  1  0  0  0
 25 26  2  0  0  0
 25 27  1  0  0  0
 27 29  1  0  0  0
 29 41  1  0  0  0
 41 42  1  0  0  0
 29 30  1  0  0  0
 30 31  2  0  0  0
 30 32  1  0  0  0
 32 33  1  0  0  0
 33 34  1  0  0  0
 34 35  1  0  0  0
 35 36  1  0  0  0
 36 37  1  0  0  0
 37 38  1  0  0  0
 37 39  2  0  0  0
 96 99  1  0  0  0
 99100  1  0  0  0
 99101  1  0  0  0
125121  1  0  0  0
  8  2  1  0  0  0
 49 45  1  0  0  0
 36 32  1  0  0  0
 95 97  1  0  0  0
 95 98  1  0  0  0
 93 94  1  0  0  0
107108  1  0  0  0
107109  1  0  0  0
 88 89  1  0  0  0
114115  1  0  0  0
114116  1  0  0  0
 83 84  1  0  0  0
 77 78  1  0  0  0
118119  1  0  0  0
 72 73  1  0  0  0
125126  1  0  0  0
 67 68  1  0  0  0
  6  9  1  0  0  0
 12 13  1  0  0  0
 62 63  1  0  0  0
 62 64  1  0  0  0
 17 18  1  0  0  0
 55 56  1  0  0  0
 55 57  1  0  0  0
 22 23  1  0  0  0
 49 50  1  0  0  0
 27 28  1  0  0  0
 42 43  1  0  0  0
 38 40  1  0  0  0
100102  1  0  0  0
M  END
> <minimizedAffinity>
-7.42811

$$$$



126129  0  0  0  0  0  0  0  0999 V2000
   22.8683  -10.5942   50.4872 C   0  0  0  0  0  0  0  0  0  0  0  0
   22.0152   -9.3674   50.2618 C   0  0  0  0  0  0  0  0  0  0  0  0
   20.7685   -9.4615   49.6174 C   0  0  0  0  0  0  0  0  0  0  0  0
   19.9676   -8.3280   49.4590 C   0  0  0  0  0  0  0  0  0  0  0  0
   20.4081   -7.0822   49.9233 C   0  0  0  0  0  0  0  0  0  0  0  0
   19.6001   -5.9573   49.7630 O   0  0  0  0  0  0  0  0  0  0  0  0
   21.6549   -6.9769   50.5513 C   0  0  0  0  0  0  0  0  0  0  0  0
   22.4482   -8.1155   50.7270 C   0  0  0  0  0  0  0  0  0  0  0  0
   19.9164   -5.0385   50.0505 H   0  0  0  0  0  0  0  0  0  0  0  0
   22.1114  -11.6328   51.2731 C   0  0  0  0  0  0  0  0  0  0  0  0
   21.5840  -12.6166   50.6906 O   0  0  0  0  0  0  0  0  0  0  0  0
   21.9526  -11.4784   52.6901 N   0  0  0  0  0  0  0  0  0  0  0  0
   22.7938  -11.1630   53.2261 H   0  0  0  0  0  0  0  0  0  0  0  0
   20.6540  -11.3555   53.3726 C   0  0  0  0  0  0  0  0  0  0  0  0
   20.8655  -10.7167   54.7248 C   0  0  0  0  0  0  0  0  0  0  0  0
   22.0325  -10.5647   55.1870 O   0  0  0  0  0  0  0  0  0  0  0  0
   19.7293  -10.2930   55.4910 N   0  0  0  0  0  0  0  0  0  0  0  0
   18.8051  -10.2328   55.0054 H   0  0  0  0  0  0  0  0  0  0  0  0
   19.7344  -10.3197   56.9581 C   0  0  0  0  0  0  0  0  0  0  0  0
   19.8177   -8.9112   57.4954 C   0  0  0  0  0  0  0  0  0  0  0  0
   20.8632   -8.5354   58.0887 O   0  0  0  0  0  0  0  0  0  0  0  0
   18.7396   -7.9832   57.2747 N   0  0  0  0  0  0  0  0  0  0  0  0
   17.9242   -8.3218   56.7106 H   0  0  0  0  0  0  0  0  0  0  0  0
   18.8818   -6.5443   57.5531 C   0  0  0  0  0  0  0  0  0  0  0  0
   18.2902   -6.1673   58.8963 C   0  0  0  0  0  0  0  0  0  0  0  0
   17.1902   -6.6722   59.2510 O   0  0  0  0  0  0  0  0  0  0  0  0
   18.8705   -5.1411   59.7243 N   0  0  0  0  0  0  0  0  0  0  0  0
   18.1930   -4.5026   60.2049 H   0  0  0  0  0  0  0  0  0  0  0  0
   20.2586   -5.1086   60.2204 C   0  0  0  0  0  0  0  0  0  0  0  0
   20.8586   -3.7254   60.1052 C   0  0  0  0  0  0  0  0  0  0  0  0
   20.2749   -2.8421   59.4296 O   0  0  0  0  0  0  0  0  0  0  0  0
   22.1534   -3.4306   60.6470 N   0  0  0  0  0  0  0  0  0  0  0  0
   22.3424   -2.8615   61.9699 C   0  0  0  0  0  0  0  0  0  0  0  0
   23.7558   -2.2978   61.9759 C   0  0  0  0  0  0  0  0  0  0  0  0
   24.4728   -2.9769   60.8110 C   0  0  0  0  0  0  0  0  0  0  0  0
   23.3697   -3.4119   59.8446 C   0  0  0  0  0  0  0  0  0  0  0  0
   23.2445   -2.4503   58.6949 C   0  0  0  0  0  0  0  0  0  0  0  0
   23.1774   -2.9365   57.3971 O   0  0  0  0  0  0  0  0  0  0  0  0
   23.2326   -1.2076   58.9049 O   0  0  0  0  0  0  0  0  0  0  0  0
   23.1079   -2.3053   56.6081 H   0  0  0  0  0  0  0  0  0  0  0  0
   20.3550   -5.6909   61.6453 C   0  0  0  0  0  0  0  0  0  0  0  0
   21.6825   -6.9347   61.7894 S   0  0  0  0  0  0  0  0  0  0  0  0
   22.7143   -6.0731   61.3889 H   0  0  0  0  0  0  0  0  0  0  0  0
   18.2334   -5.7264   56.4152 C   0  0  0  0  0  0  0  0  0  0  0  0
   19.0631   -4.5344   56.0124 C   0  0  0  0  0  0  0  0  0  0  0  0
   18.8147   -3.2184   56.3292 C   0  0  0  0  0  0  0  0  0  0  0  0
   19.7557   -2.4409   55.7594 N   0  0  0  0  0  0  0  0  0  0  0  0
   20.5505   -3.3085   55.0969 C   0  0  0  0  0  0  0  0  0  0  0  0
   20.1565   -4.5879   55.2314 N   0  0  0  0  0  0  0  0  0  0  0  0
   20.5813   -5.4306   54.7844 H   0  0  0  0  0  0  0  0  0  0  0  0
   18.4541  -11.0059   57.4799 C   0  0  0  0  0  0  0  0  0  0  0  0
   17.5449  -11.4963   56.3401 C   0  0  0  0  0  0  0  0  0  0  0  0
   16.3459  -10.6035   56.1780 C   0  0  0  0  0  0  0  0  0  0  0  0
   16.0709   -9.7546   57.0676 O   0  0  0  0  0  0  0  0  0  0  0  0
   15.5089  -10.7172   55.0254 N   0  0  0  0  0  0  0  0  0  0  0  0
   14.7022  -10.0671   54.8930 H   0  0  0  0  0  0  0  0  0  0  0  0
   15.6789  -11.4529   54.3052 H   0  0  0  0  0  0  0  0  0  0  0  0
   19.8775  -12.6939   53.4623 C   0  0  0  0  0  0  0  0  0  0  0  0
   20.6915  -13.8022   54.1521 C   0  0  0  0  0  0  0  0  0  0  0  0
   20.8678  -15.0539   53.2735 C   0  0  0  0  0  0  0  0  0  0  0  0
   20.0460  -16.2820   53.7180 C   0  0  0  0  0  0  0  0  0  0  0  0
   20.6487  -17.5473   53.2915 N   0  0  0  0  0  0  0  0  0  0  0  0
   21.5198  -17.7126   53.8498 H   0  0  0  0  0  0  0  0  0  0  0  0
   20.9193  -17.4770   52.2890 H   0  0  0  0  0  0  0  0  0  0  0  0
   24.7015  -10.9962   48.8184 C   0  0  0  0  0  0  0  0  0  0  0  0
   25.2663   -9.8728   48.8989 O   0  0  0  0  0  0  0  0  0  0  0  0
   23.3327  -11.1371   49.2068 N   0  0  0  0  0  0  0  0  0  0  0  0
   22.7152  -11.7780   48.6558 H   0  0  0  0  0  0  0  0  0  0  0  0
   25.5104  -12.2254   48.5237 C   0  0  0  0  0  0  0  0  0  0  0  0
   28.0056  -12.0243   49.0007 C   0  0  0  0  0  0  0  0  0  0  0  0
   28.9155  -11.1456   49.0380 O   0  0  0  0  0  0  0  0  0  0  0  0
   26.8640  -11.8022   48.1553 N   0  0  0  0  0  0  0  0  0  0  0  0
   26.9590  -11.0494   47.4399 H   0  0  0  0  0  0  0  0  0  0  0  0
   28.1761  -13.3252   49.7564 C   0  0  0  0  0  0  0  0  0  0  0  0
   26.5809  -14.9434   50.8771 C   0  0  0  0  0  0  0  0  0  0  0  0
   26.8360  -15.8378   50.0239 O   0  0  0  0  0  0  0  0  0  0  0  0
   27.0512  -13.6026   50.6614 N   0  0  0  0  0  0  0  0  0  0  0  0
   26.5985  -12.8350   51.2030 H   0  0  0  0  0  0  0  0  0  0  0  0
   25.8064  -15.2692   52.1321 C   0  0  0  0  0  0  0  0  0  0  0  0
   25.2218  -13.9841   52.7169 C   0  0  0  0  0  0  0  0  0  0  0  0
   26.7089  -17.3858   53.2419 C   0  0  0  0  0  0  0  0  0  0  0  0
   25.9320  -18.1114   52.5638 O   0  0  0  0  0  0  0  0  0  0  0  0
   26.6369  -15.9532   53.1386 N   0  0  0  0  0  0  0  0  0  0  0  0
   27.2409  -15.4062   53.7881 H   0  0  0  0  0  0  0  0  0  0  0  0
   27.7130  -18.0332   54.1635 C   0  0  0  0  0  0  0  0  0  0  0  0
   26.4603  -18.6516   56.2811 C   0  0  0  0  0  0  0  0  0  0  0  0
   26.9232  -19.3153   57.2505 O   0  0  0  0  0  0  0  0  0  0  0  0
   27.3397  -17.7814   55.5592 N   0  0  0  0  0  0  0  0  0  0  0  0
   28.0184  -17.2466   56.1380 H   0  0  0  0  0  0  0  0  0  0  0  0
   24.9617  -18.6877   56.0311 C   0  0  0  0  0  0  0  0  0  0  0  0
   23.4632  -16.8385   56.8385 C   0  0  0  0  0  0  0  0  0  0  0  0
   22.6338  -16.8144   55.8876 O   0  0  0  0  0  0  0  0  0  0  0  0
   24.2006  -18.0372   57.1001 N   0  0  0  0  0  0  0  0  0  0  0  0
   24.1482  -18.4567   58.0528 H   0  0  0  0  0  0  0  0  0  0  0  0
   24.3224  -15.9339   58.9416 N   0  0  0  0  0  0  0  0  0  0  0  0
   23.7458  -15.5833   57.6366 C   0  0  0  0  0  0  0  0  0  0  0  0
   24.3851  -15.0623   59.5185 H   0  0  0  0  0  0  0  0  0  0  0  0
   23.6520  -16.5584   59.4441 H   0  0  0  0  0  0  0  0  0  0  0  0
   24.6565  -14.6053   56.8615 C   0  0  0  0  0  0  0  0  0  0  0  0
   25.3727  -15.3282   55.8871 O   0  0  0  0  0  0  0  0  0  0  0  0
   23.8672  -13.4788   56.1796 C   0  0  0  0  0  0  0  0  0  0  0  0
   26.1173  -14.7466   55.5875 H   0  0  0  0  0  0  0  0  0  0  0  0
   24.4632  -20.1243   55.7972 C   0  0  0  0  0  0  0  0  0  0  0  0
   23.2161  -20.2157   54.8999 C   0  0  0  0  0  0  0  0  0  0  0  0
   21.9568  -20.4557   55.6939 C   0  0  0  0  0  0  0  0  0  0  0  0
   21.8288  -20.0116   56.8647 O   0  0  0  0  0  0  0  0  0  0  0  0
   20.8817  -21.1855   55.1055 N   0  0  0  0  0  0  0  0  0  0  0  0
   19.9990  -21.3421   55.6367 H   0  0  0  0  0  0  0  0  0  0  0  0
   20.9470  -21.5288   54.1189 H   0  0  0  0  0  0  0  0  0  0  0  0
   29.2002  -17.6494   53.9006 C   0  0  0  0  0  0  0  0  0  0  0  0
   30.0039  -18.5187   52.9110 C   0  0  0  0  0  0  0  0  0  0  0  0
   30.3813  -19.9055   53.3791 C   0  0  0  0  0  0  0  0  0  0  0  0
   29.6766  -20.8744   53.0001 O   0  0  0  0  0  0  0  0  0  0  0  0
   31.4740  -20.1595   54.2684 N   0  0  0  0  0  0  0  0  0  0  0  0
   31.9853  -19.4003   54.7636 H   0  0  0  0  0  0  0  0  0  0  0  0
   31.7083  -21.1455   54.5332 H   0  0  0  0  0  0  0  0  0  0  0  0
   29.5060  -13.2889   50.5378 C   0  0  0  0  0  0  0  0  0  0  0  0
   30.2373  -14.4729   50.3386 O   0  0  0  0  0  0  0  0  0  0  0  0
   30.7837  -14.3321   49.5180 H   0  0  0  0  0  0  0  0  0  0  0  0
   24.8775  -13.0763   47.4072 C   0  0  0  0  0  0  0  0  0  0  0  0
   24.3323  -14.3599   47.9666 C   0  0  0  0  0  0  0  0  0  0  0  0
   24.4633  -15.6148   47.4010 C   0  0  0  0  0  0  0  0  0  0  0  0
   23.7894  -16.5090   48.1536 N   0  0  0  0  0  0  0  0  0  0  0  0
   23.2660  -15.7726   49.1612 C   0  0  0  0  0  0  0  0  0  0  0  0
   23.5875  -14.4651   49.0771 N   0  0  0  0  0  0  0  0  0  0  0  0
   23.2838  -13.7029   49.7208 H   0  0  0  0  0  0  0  0  0  0  0  0
 95 96  1  0  0  0
 96 91  1  0  0  0
 91 92  2  0  0  0
 91 93  1  0  0  0
 93 90  1  0  0  0
 90103  1  0  0  0
103104  1  0  0  0
104105  1  0  0  0
105106  2  0  0  0
105107  1  0  0  0
 90 86  1  0  0  0
 86 87  2  0  0  0
 86 88  1  0  0  0
 88 85  1  0  0  0
 85110  1  0  0  0
110111  1  0  0  0
111112  1  0  0  0
112113  2  0  0  0
112114  1  0  0  0
 85 81  1  0  0  0
 81 82  2  0  0  0
 81 83  1  0  0  0
 83 79  1  0  0  0
 79 80  1  0  0  0
 79 75  1  0  0  0
 75 76  2  0  0  0
 75 77  1  0  0  0
 77 74  1  0  0  0
 74117  1  0  0  0
117118  1  0  0  0
 74 70  1  0  0  0
 70 71  2  0  0  0
 70 72  1  0  0  0
 72 69  1  0  0  0
 69120  1  0  0  0
120121  1  0  0  0
121122  2  0  0  0
122123  1  0  0  0
123124  2  0  0  0
124125  1  0  0  0
 69 65  1  0  0  0
 65 66  2  0  0  0
 65 67  1  0  0  0
 67  1  1  0  0  0
  1  2  1  0  0  0
  2  3  2  0  0  0
  3  4  1  0  0  0
  4  5  2  0  0  0
  5  6  1  0  0  0
  5  7  1  0  0  0
  7  8  2  0  0  0
  1 10  1  0  0  0
 10 11  2  0  0  0
 10 12  1  0  0  0
 12 14  1  0  0  0
 14 58  1  0  0  0
 58 59  1  0  0  0
 59 60  1  0  0  0
 60 61  1  0  0  0
 61 62  1  0  0  0
 14 15  1  0  0  0
 15 16  2  0  0  0
 15 17  1  0  0  0
 17 19  1  0  0  0
 19 51  1  0  0  0
 51 52  1  0  0  0
 52 53  1  0  0  0
 53 54  2  0  0  0
 53 55  1  0  0  0
 19 20  1  0  0  0
 20 21  2  0  0  0
 20 22  1  0  0  0
 22 24  1  0  0  0
 24 44  1  0  0  0
 44 45  1  0  0  0
 45 46  2  0  0  0
 46 47  1  0  0  0
 47 48  2  0  0  0
 48 49  1  0  0  0
 24 25  1  0  0  0
 25 26  2  0  0  0
 25 27  1  0  0  0
 27 29  1  0  0  0
 29 41  1  0  0  0
 41 42  1  0  0  0
 29 30  1  0  0  0
 30 31  2  0  0  0
 30 32  1  0  0  0
 32 33  1  0  0  0
 33 34  1  0  0  0
 34 35  1  0  0  0
 35 36  1  0  0  0
 36 37  1  0  0  0
 37 38  1  0  0  0
 37 39  2  0  0  0
 96 99  1  0  0  0
 99100  1  0  0  0
 99101  1  0  0  0
125121  1  0  0  0
  8  2  1  0  0  0
 49 45  1  0  0  0
 36 32  1  0  0  0
 95 97  1  0  0  0
 95 98  1  0  0  0
 93 94  1  0  0  0
107108  1  0  0  0
107109  1  0  0  0
 88 89  1  0  0  0
114115  1  0  0  0
114116  1  0  0  0
 83 84  1  0  0  0
 77 78  1  0  0  0
118119  1  0  0  0
 72 73  1  0  0  0
125126  1  0  0  0
 67 68  1  0  0  0
  6  9  1  0  0  0
 12 13  1  0  0  0
 62 63  1  0  0  0
 62 64  1  0  0  0
 17 18  1  0  0  0
 55 56  1  0  0  0
 55 57  1  0  0  0
 22 23  1  0  0  0
 49 50  1  0  0  0
 27 28  1  0  0  0
 42 43  1  0  0  0
 38 40  1  0  0  0
100102  1  0  0  0
M  END
> <minimizedAffinity>
-7.42288

$$$$



126129  0  0  0  0  0  0  0  0999 V2000
   25.8492   -1.1633   53.3667 C   0  0  0  0  0  0  0  0  0  0  0  0
   25.9590   -2.6066   52.9328 C   0  0  0  0  0  0  0  0  0  0  0  0
   26.4401   -3.5923   53.8133 C   0  0  0  0  0  0  0  0  0  0  0  0
   26.4904   -4.9307   53.4165 C   0  0  0  0  0  0  0  0  0  0  0  0
   26.0804   -5.3009   52.1294 C   0  0  0  0  0  0  0  0  0  0  0  0
   26.1318   -6.6399   51.7437 O   0  0  0  0  0  0  0  0  0  0  0  0
   25.6156   -4.3238   51.2411 C   0  0  0  0  0  0  0  0  0  0  0  0
   25.5471   -2.9865   51.6454 C   0  0  0  0  0  0  0  0  0  0  0  0
   25.8828   -6.9253   50.8038 H   0  0  0  0  0  0  0  0  0  0  0  0
   24.4197   -0.8092   53.6836 C   0  0  0  0  0  0  0  0  0  0  0  0
   24.1264    0.3341   54.1221 O   0  0  0  0  0  0  0  0  0  0  0  0
   23.3898   -1.7946   53.5260 N   0  0  0  0  0  0  0  0  0  0  0  0
   23.4322   -2.3857   52.6638 H   0  0  0  0  0  0  0  0  0  0  0  0
   22.5365   -2.2876   54.6197 C   0  0  0  0  0  0  0  0  0  0  0  0
   22.7279   -3.7792   54.7613 C   0  0  0  0  0  0  0  0  0  0  0  0
   23.6562   -4.2409   55.4849 O   0  0  0  0  0  0  0  0  0  0  0  0
   21.8548   -4.6730   54.0569 N   0  0  0  0  0  0  0  0  0  0  0  0
   20.9780   -4.2790   53.6451 H   0  0  0  0  0  0  0  0  0  0  0  0
   22.3152   -5.9793   53.5723 C   0  0  0  0  0  0  0  0  0  0  0  0
   21.8896   -7.0614   54.5353 C   0  0  0  0  0  0  0  0  0  0  0  0
   21.0706   -7.9403   54.1569 O   0  0  0  0  0  0  0  0  0  0  0  0
   22.4638   -7.1296   55.8536 N   0  0  0  0  0  0  0  0  0  0  0  0
   23.1963   -6.4201   56.0941 H   0  0  0  0  0  0  0  0  0  0  0  0
   22.2736   -8.3004   56.7260 C   0  0  0  0  0  0  0  0  0  0  0  0
   21.6105   -7.9270   58.0365 C   0  0  0  0  0  0  0  0  0  0  0  0
   21.6721   -6.7346   58.4427 O   0  0  0  0  0  0  0  0  0  0  0  0
   21.0317   -8.9175   58.9078 N   0  0  0  0  0  0  0  0  0  0  0  0
   21.1957   -8.7777   59.9331 H   0  0  0  0  0  0  0  0  0  0  0  0
   19.9812   -9.8857   58.5433 C   0  0  0  0  0  0  0  0  0  0  0  0
   18.9015   -9.2447   57.7007 C   0  0  0  0  0  0  0  0  0  0  0  0
   18.9172   -9.3788   56.4520 O   0  0  0  0  0  0  0  0  0  0  0  0
   17.9236   -8.3733   58.2847 N   0  0  0  0  0  0  0  0  0  0  0  0
   16.6169   -8.8352   58.7195 C   0  0  0  0  0  0  0  0  0  0  0  0
   15.7588   -7.5844   58.8397 C   0  0  0  0  0  0  0  0  0  0  0  0
   16.7420   -6.4181   58.9121 C   0  0  0  0  0  0  0  0  0  0  0  0
   18.0270   -6.9201   58.2512 C   0  0  0  0  0  0  0  0  0  0  0  0
   18.1428   -6.4185   56.8379 C   0  0  0  0  0  0  0  0  0  0  0  0
   16.9990   -6.2656   56.0676 O   0  0  0  0  0  0  0  0  0  0  0  0
   19.2749   -6.1683   56.3437 O   0  0  0  0  0  0  0  0  0  0  0  0
   17.0565   -5.9436   55.1091 H   0  0  0  0  0  0  0  0  0  0  0  0
   20.5864  -11.1456   57.8912 C   0  0  0  0  0  0  0  0  0  0  0  0
   21.8545  -11.9231   58.9486 S   0  0  0  0  0  0  0  0  0  0  0  0
   21.0044  -12.1270   60.0455 H   0  0  0  0  0  0  0  0  0  0  0  0
   23.6312   -8.9935   56.9721 C   0  0  0  0  0  0  0  0  0  0  0  0
   24.5315   -8.9508   55.7642 C   0  0  0  0  0  0  0  0  0  0  0  0
   24.3543   -9.6386   54.5854 C   0  0  0  0  0  0  0  0  0  0  0  0
   25.3843   -9.3728   53.7589 N   0  0  0  0  0  0  0  0  0  0  0  0
   26.1723   -8.5340   54.4651 C   0  0  0  0  0  0  0  0  0  0  0  0
   25.6814   -8.2579   55.6870 N   0  0  0  0  0  0  0  0  0  0  0  0
   26.1249   -7.6720   56.4290 H   0  0  0  0  0  0  0  0  0  0  0  0
   21.7291   -6.2617   52.1727 C   0  0  0  0  0  0  0  0  0  0  0  0
   20.6798   -5.2176   51.7542 C   0  0  0  0  0  0  0  0  0  0  0  0
   20.4249   -5.2657   50.2730 C   0  0  0  0  0  0  0  0  0  0  0  0
   20.6689   -4.2550   49.5613 O   0  0  0  0  0  0  0  0  0  0  0  0
   19.8982   -6.4477   49.6669 N   0  0  0  0  0  0  0  0  0  0  0  0
   19.7631   -6.4947   48.6323 H   0  0  0  0  0  0  0  0  0  0  0  0
   19.6298   -7.2759   50.2422 H   0  0  0  0  0  0  0  0  0  0  0  0
   21.0462   -1.8917   54.4630 C   0  0  0  0  0  0  0  0  0  0  0  0
   20.6449   -0.7298   55.3880 C   0  0  0  0  0  0  0  0  0  0  0  0
   19.4724   -1.0818   56.3213 C   0  0  0  0  0  0  0  0  0  0  0  0
   19.3112   -2.5862   56.6246 C   0  0  0  0  0  0  0  0  0  0  0  0
   18.2668   -3.2157   55.8127 N   0  0  0  0  0  0  0  0  0  0  0  0
   18.5990   -3.2753   54.8208 H   0  0  0  0  0  0  0  0  0  0  0  0
   17.4139   -2.6195   55.8297 H   0  0  0  0  0  0  0  0  0  0  0  0
   27.3713    0.3600   54.6590 C   0  0  0  0  0  0  0  0  0  0  0  0
   27.9893    0.8648   53.6840 O   0  0  0  0  0  0  0  0  0  0  0  0
   26.7230   -0.9063   54.5157 N   0  0  0  0  0  0  0  0  0  0  0  0
   26.7384   -1.5751   55.3207 H   0  0  0  0  0  0  0  0  0  0  0  0
   27.1290    1.1718   55.8978 C   0  0  0  0  0  0  0  0  0  0  0  0
   29.3559    1.2979   57.1304 C   0  0  0  0  0  0  0  0  0  0  0  0
   29.9897    2.0715   57.9057 O   0  0  0  0  0  0  0  0  0  0  0  0
   28.3757    1.8607   56.2416 N   0  0  0  0  0  0  0  0  0  0  0  0
   28.4101    2.8949   56.1120 H   0  0  0  0  0  0  0  0  0  0  0  0
   29.7047   -0.1745   57.0763 C   0  0  0  0  0  0  0  0  0  0  0  0
   29.0472   -2.1418   58.5312 C   0  0  0  0  0  0  0  0  0  0  0  0
   28.2828   -2.5927   57.6339 O   0  0  0  0  0  0  0  0  0  0  0  0
   29.6063   -0.8253   58.3910 N   0  0  0  0  0  0  0  0  0  0  0  0
   29.9831   -0.3628   59.2463 H   0  0  0  0  0  0  0  0  0  0  0  0
   29.3990   -2.9765   59.7398 C   0  0  0  0  0  0  0  0  0  0  0  0
   30.5584   -3.9098   59.3931 C   0  0  0  0  0  0  0  0  0  0  0  0
   27.2701   -3.2087   61.1326 C   0  0  0  0  0  0  0  0  0  0  0  0
   27.4507   -2.0760   61.6564 O   0  0  0  0  0  0  0  0  0  0  0  0
   28.2501   -3.7557   60.2333 N   0  0  0  0  0  0  0  0  0  0  0  0
   28.0895   -4.7308   59.9030 H   0  0  0  0  0  0  0  0  0  0  0  0
   26.0184   -3.9856   61.4586 C   0  0  0  0  0  0  0  0  0  0  0  0
   25.0063   -4.9571   63.5723 C   0  0  0  0  0  0  0  0  0  0  0  0
   25.5886   -5.7227   64.3903 O   0  0  0  0  0  0  0  0  0  0  0  0
   25.7746   -3.9496   62.9042 N   0  0  0  0  0  0  0  0  0  0  0  0
   26.4851   -3.4643   63.4887 H   0  0  0  0  0  0  0  0  0  0  0  0
   23.4930   -5.0385   63.4585 C   0  0  0  0  0  0  0  0  0  0  0  0
   22.0652   -7.1036   63.5760 C   0  0  0  0  0  0  0  0  0  0  0  0
   20.9702   -6.5786   63.9193 O   0  0  0  0  0  0  0  0  0  0  0  0
   23.0425   -6.3119   62.8924 N   0  0  0  0  0  0  0  0  0  0  0  0
   23.3916   -6.6408   61.9670 H   0  0  0  0  0  0  0  0  0  0  0  0
   21.3940   -9.0213   64.9367 N   0  0  0  0  0  0  0  0  0  0  0  0
   22.3825   -8.5316   63.9664 C   0  0  0  0  0  0  0  0  0  0  0  0
   21.7102   -9.9566   65.2851 H   0  0  0  0  0  0  0  0  0  0  0  0
   21.4051   -8.3903   65.7695 H   0  0  0  0  0  0  0  0  0  0  0  0
   22.4681   -9.4567   62.7322 C   0  0  0  0  0  0  0  0  0  0  0  0
   21.8222   -8.8286   61.6490 O   0  0  0  0  0  0  0  0  0  0  0  0
   23.9158   -9.7840   62.3394 C   0  0  0  0  0  0  0  0  0  0  0  0
   21.6660   -9.5271   60.9634 H   0  0  0  0  0  0  0  0  0  0  0  0
   22.9223   -3.8510   62.6638 C   0  0  0  0  0  0  0  0  0  0  0  0
   22.2179   -4.2540   61.3560 C   0  0  0  0  0  0  0  0  0  0  0  0
   20.7193   -4.1142   61.4472 C   0  0  0  0  0  0  0  0  0  0  0  0
   20.1806   -3.4530   62.3731 O   0  0  0  0  0  0  0  0  0  0  0  0
   19.8934   -4.7277   60.4593 N   0  0  0  0  0  0  0  0  0  0  0  0
   18.8574   -4.6229   60.5005 H   0  0  0  0  0  0  0  0  0  0  0  0
   20.3186   -5.2472   59.6563 H   0  0  0  0  0  0  0  0  0  0  0  0
   25.9837   -5.4468   60.9181 C   0  0  0  0  0  0  0  0  0  0  0  0
   25.0405   -5.7550   59.7364 C   0  0  0  0  0  0  0  0  0  0  0  0
   25.5002   -5.3073   58.3678 C   0  0  0  0  0  0  0  0  0  0  0  0
   25.9541   -6.1737   57.5789 O   0  0  0  0  0  0  0  0  0  0  0  0
   25.4848   -3.9389   57.9474 N   0  0  0  0  0  0  0  0  0  0  0  0
   25.2962   -3.1511   58.6007 H   0  0  0  0  0  0  0  0  0  0  0  0
   25.7857   -3.6921   56.9749 H   0  0  0  0  0  0  0  0  0  0  0  0
   31.1233   -0.3400   56.4928 C   0  0  0  0  0  0  0  0  0  0  0  0
   31.4533    0.7445   55.6614 O   0  0  0  0  0  0  0  0  0  0  0  0
   31.8421    1.4451   56.2527 H   0  0  0  0  0  0  0  0  0  0  0  0
   26.6411    0.3006   57.0699 C   0  0  0  0  0  0  0  0  0  0  0  0
   25.1608    0.4642   57.2688 C   0  0  0  0  0  0  0  0  0  0  0  0
   24.2969   -0.4902   57.7736 C   0  0  0  0  0  0  0  0  0  0  0  0
   23.0386   -0.0045   57.7432 N   0  0  0  0  0  0  0  0  0  0  0  0
   23.1706    1.2369   57.2207 C   0  0  0  0  0  0  0  0  0  0  0  0
   24.4505    1.5508   56.9317 N   0  0  0  0  0  0  0  0  0  0  0  0
   24.7964    2.4359   56.5021 H   0  0  0  0  0  0  0  0  0  0  0  0
 95 96  1  0  0  0
 96 91  1  0  0  0
 91 92  2  0  0  0
 91 93  1  0  0  0
 93 90  1  0  0  0
 90103  1  0  0  0
103104  1  0  0  0
104105  1  0  0  0
105106  2  0  0  0
105107  1  0  0  0
 90 86  1  0  0  0
 86 87  2  0  0  0
 86 88  1  0  0  0
 88 85  1  0  0  0
 85110  1  0  0  0
110111  1  0  0  0
111112  1  0  0  0
112113  2  0  0  0
112114  1  0  0  0
 85 81  1  0  0  0
 81 82  2  0  0  0
 81 83  1  0  0  0
 83 79  1  0  0  0
 79 80  1  0  0  0
 79 75  1  0  0  0
 75 76  2  0  0  0
 75 77  1  0  0  0
 77 74  1  0  0  0
 74117  1  0  0  0
117118  1  0  0  0
 74 70  1  0  0  0
 70 71  2  0  0  0
 70 72  1  0  0  0
 72 69  1  0  0  0
 69120  1  0  0  0
120121  1  0  0  0
121122  2  0  0  0
122123  1  0  0  0
123124  2  0  0  0
124125  1  0  0  0
 69 65  1  0  0  0
 65 66  2  0  0  0
 65 67  1  0  0  0
 67  1  1  0  0  0
  1  2  1  0  0  0
  2  3  2  0  0  0
  3  4  1  0  0  0
  4  5  2  0  0  0
  5  6  1  0  0  0
  5  7  1  0  0  0
  7  8  2  0  0  0
  1 10  1  0  0  0
 10 11  2  0  0  0
 10 12  1  0  0  0
 12 14  1  0  0  0
 14 58  1  0  0  0
 58 59  1  0  0  0
 59 60  1  0  0  0
 60 61  1  0  0  0
 61 62  1  0  0  0
 14 15  1  0  0  0
 15 16  2  0  0  0
 15 17  1  0  0  0
 17 19  1  0  0  0
 19 51  1  0  0  0
 51 52  1  0  0  0
 52 53  1  0  0  0
 53 54  2  0  0  0
 53 55  1  0  0  0
 19 20  1  0  0  0
 20 21  2  0  0  0
 20 22  1  0  0  0
 22 24  1  0  0  0
 24 44  1  0  0  0
 44 45  1  0  0  0
 45 46  2  0  0  0
 46 47  1  0  0  0
 47 48  2  0  0  0
 48 49  1  0  0  0
 24 25  1  0  0  0
 25 26  2  0  0  0
 25 27  1  0  0  0
 27 29  1  0  0  0
 29 41  1  0  0  0
 41 42  1  0  0  0
 29 30  1  0  0  0
 30 31  2  0  0  0
 30 32  1  0  0  0
 32 33  1  0  0  0
 33 34  1  0  0  0
 34 35  1  0  0  0
 35 36  1  0  0  0
 36 37  1  0  0  0
 37 38  1  0  0  0
 37 39  2  0  0  0
 96 99  1  0  0  0
 99100  1  0  0  0
 99101  1  0  0  0
125121  1  0  0  0
  8  2  1  0  0  0
 49 45  1  0  0  0
 36 32  1  0  0  0
 95 97  1  0  0  0
 95 98  1  0  0  0
 93 94  1  0  0  0
107108  1  0  0  0
107109  1  0  0  0
 88 89  1  0  0  0
114115  1  0  0  0
114116  1  0  0  0
 83 84  1  0  0  0
 77 78  1  0  0  0
118119  1  0  0  0
 72 73  1  0  0  0
125126  1  0  0  0
 67 68  1  0  0  0
  6  9  1  0  0  0
 12 13  1  0  0  0
 62 63  1  0  0  0
 62 64  1  0  0  0
 17 18  1  0  0  0
 55 56  1  0  0  0
 55 57  1  0  0  0
 22 23  1  0  0  0
 49 50  1  0  0  0
 27 28  1  0  0  0
 42 43  1  0  0  0
 38 40  1  0  0  0
100102  1  0  0  0
M  END
> <minimizedAffinity>
-7.41973

$$$$
