


126129  0  0  0  0  0  0  0  0999 V2000
   35.5889   11.4654   30.7063 C   0  0  0  0  0  0  0  0  0  0  0  0
   35.0338   12.2109   30.3374 C   0  0  0  0  0  0  0  0  0  0  0  0
   35.4710   13.0592   30.0385 C   0  0  0  0  0  0  0  0  0  0  0  0
   34.9158   13.8048   29.6696 C   0  0  0  0  0  0  0  0  0  0  0  0
   33.9236   13.7020   29.5997 C   0  0  0  0  0  0  0  0  0  0  0  0
   33.3685   14.4475   29.2308 O   0  0  0  0  0  0  0  0  0  0  0  0
   33.4864   12.8537   29.8985 C   0  0  0  0  0  0  0  0  0  0  0  0
   34.0415   12.1082   30.2674 C   0  0  0  0  0  0  0  0  0  0  0  0
   33.7782   15.2424   28.9508 H   0  0  0  0  0  0  0  0  0  0  0  0
   35.9286   11.5125   31.6456 C   0  0  0  0  0  0  0  0  0  0  0  0
   36.5838   12.2220   31.9053 O   0  0  0  0  0  0  0  0  0  0  0  0
   35.6133   10.8501   32.3251 N   0  0  0  0  0  0  0  0  0  0  0  0
   34.9683   10.1517   32.0694 H   0  0  0  0  0  0  0  0  0  0  0  0
   35.9531   10.8972   33.2645 C   0  0  0  0  0  0  0  0  0  0  0  0
   36.6940   10.2937   33.5590 C   0  0  0  0  0  0  0  0  0  0  0  0
   36.7427    9.3565   33.2137 O   0  0  0  0  0  0  0  0  0  0  0  0
   37.3863   10.6274   34.1989 N   0  0  0  0  0  0  0  0  0  0  0  0
   37.3383   11.5501   34.5388 H   0  0  0  0  0  0  0  0  0  0  0  0
   38.1273   10.0239   34.4934 C   0  0  0  0  0  0  0  0  0  0  0  0
   39.0538   10.1625   34.1438 C   0  0  0  0  0  0  0  0  0  0  0  0
   39.5257   11.0288   34.3075 O   0  0  0  0  0  0  0  0  0  0  0  0
   39.5086    9.4347   33.6304 N   0  0  0  0  0  0  0  0  0  0  0  0
   39.0441    8.5818   33.4692 H   0  0  0  0  0  0  0  0  0  0  0  0
   40.4352    9.5732   33.2808 C   0  0  0  0  0  0  0  0  0  0  0  0
   40.5728    9.9488   32.3643 C   0  0  0  0  0  0  0  0  0  0  0  0
   39.9635    9.6816   31.6178 O   0  0  0  0  0  0  0  0  0  0  0  0
   41.3197   10.5916   32.1943 N   0  0  0  0  0  0  0  0  0  0  0  0
   41.9196   10.8547   32.9293 H   0  0  0  0  0  0  0  0  0  0  0  0
   41.4574   10.9672   31.2778 C   0  0  0  0  0  0  0  0  0  0  0  0
   41.8925   11.8602   31.1636 C   0  0  0  0  0  0  0  0  0  0  0  0
   42.8820   11.9212   31.0325 O   0  0  0  0  0  0  0  0  0  0  0  0
   41.3382   12.6924   31.1804 N   0  0  0  0  0  0  0  0  0  0  0  0
   40.3469   12.7359   31.3049 C   0  0  0  0  0  0  0  0  0  0  0  0
   40.0740   13.6975   31.2771 C   0  0  0  0  0  0  0  0  0  0  0  0
   40.8965   14.2483   31.1355 C   0  0  0  0  0  0  0  0  0  0  0  0
   41.6778   13.6271   31.0757 C   0  0  0  0  0  0  0  0  0  0  0  0
   42.6314   13.8938   30.9358 C   0  0  0  0  0  0  0  0  0  0  0  0
   42.9876   14.0084   30.0084 O   0  0  0  0  0  0  0  0  0  0  0  0
   43.2288   14.0458   31.7233 O   0  0  0  0  0  0  0  0  0  0  0  0
   42.4279   13.8660   29.2706 H   0  0  0  0  0  0  0  0  0  0  0  0
   41.1598   10.4497   30.4755 C   0  0  0  0  0  0  0  0  0  0  0  0
   41.8376   10.0627   29.8504 S   0  0  0  0  0  0  0  0  0  0  0  0
   43.1643   10.2401   30.0914 H   0  0  0  0  0  0  0  0  0  0  0  0
   41.2242    9.3362   33.8477 C   0  0  0  0  0  0  0  0  0  0  0  0
   41.4082    8.3796   34.0737 C   0  0  0  0  0  0  0  0  0  0  0  0
   41.4230    7.9850   34.9924 C   0  0  0  0  0  0  0  0  0  0  0  0
   41.6337    7.0112   34.9072 N   0  0  0  0  0  0  0  0  0  0  0  0
   41.7490    6.8039   33.9357 C   0  0  0  0  0  0  0  0  0  0  0  0
   41.6096    7.6497   33.4206 N   0  0  0  0  0  0  0  0  0  0  0  0
   41.6617    7.7466   32.4422 H   0  0  0  0  0  0  0  0  0  0  0  0
   37.9416    9.2819   35.1376 C   0  0  0  0  0  0  0  0  0  0  0  0
   37.9799    9.4531   36.1220 C   0  0  0  0  0  0  0  0  0  0  0  0
   37.7067    8.7376   36.7650 C   0  0  0  0  0  0  0  0  0  0  0  0
   36.7934    8.7534   37.1722 O   0  0  0  0  0  0  0  0  0  0  0  0
   38.3467    8.0063   37.0007 N   0  0  0  0  0  0  0  0  0  0  0  0
   39.2457    7.9908   36.5998 H   0  0  0  0  0  0  0  0  0  0  0  0
   38.0777    7.3018   37.6337 H   0  0  0  0  0  0  0  0  0  0  0  0
   35.5519   11.5478   33.9093 C   0  0  0  0  0  0  0  0  0  0  0  0
   34.6612   11.3575   34.3225 C   0  0  0  0  0  0  0  0  0  0  0  0
   34.1134   12.1060   34.6963 C   0  0  0  0  0  0  0  0  0  0  0  0
   33.8503   12.0995   35.6610 C   0  0  0  0  0  0  0  0  0  0  0  0
   32.8850   12.0416   35.9157 N   0  0  0  0  0  0  0  0  0  0  0  0
   32.1687   11.9891   35.1913 H   0  0  0  0  0  0  0  0  0  0  0  0
   32.6166   12.0350   36.8997 H   0  0  0  0  0  0  0  0  0  0  0  0
   36.7241   10.5625   29.7597 C   0  0  0  0  0  0  0  0  0  0  0  0
   37.4289   11.2449   29.9540 O   0  0  0  0  0  0  0  0  0  0  0  0
   35.8041   10.6728   30.1358 N   0  0  0  0  0  0  0  0  0  0  0  0
   35.1104   10.0010   29.9446 H   0  0  0  0  0  0  0  0  0  0  0  0
   36.9394    9.7699   29.1892 C   0  0  0  0  0  0  0  0  0  0  0  0
   36.9835    9.9887   27.4716 C   0  0  0  0  0  0  0  0  0  0  0  0
   35.9841    9.9697   27.4435 O   0  0  0  0  0  0  0  0  0  0  0  0
   37.4611    9.8888   28.3445 N   0  0  0  0  0  0  0  0  0  0  0  0
   38.4451    9.9074   28.3722 H   0  0  0  0  0  0  0  0  0  0  0  0
   37.5052   10.1075   26.6269 C   0  0  0  0  0  0  0  0  0  0  0  0
   38.0852   11.5867   25.9374 C   0  0  0  0  0  0  0  0  0  0  0  0
   38.9664   11.4525   26.3906 O   0  0  0  0  0  0  0  0  0  0  0  0
   37.3546   10.9142   26.0555 N   0  0  0  0  0  0  0  0  0  0  0  0
   36.4871   11.0463   25.6093 H   0  0  0  0  0  0  0  0  0  0  0  0
   37.9346   12.3935   25.3660 C   0  0  0  0  0  0  0  0  0  0  0  0
   38.6868   12.7714   24.8262 C   0  0  0  0  0  0  0  0  0  0  0  0
   36.8810   13.6285   24.7622 C   0  0  0  0  0  0  0  0  0  0  0  0
   37.6331   14.0059   24.2218 O   0  0  0  0  0  0  0  0  0  0  0  0
   37.0318   12.8223   25.3343 N   0  0  0  0  0  0  0  0  0  0  0  0
   36.2914   12.4507   25.8663 H   0  0  0  0  0  0  0  0  0  0  0  0
   35.9781   14.0573   24.7305 C   0  0  0  0  0  0  0  0  0  0  0  0
   35.2329   14.9176   26.0361 C   0  0  0  0  0  0  0  0  0  0  0  0
   34.8173   14.0673   26.3590 O   0  0  0  0  0  0  0  0  0  0  0  0
   35.8133   14.9126   25.2218 N   0  0  0  0  0  0  0  0  0  0  0  0
   36.2225   15.7496   24.9038 H   0  0  0  0  0  0  0  0  0  0  0  0
   35.0681   15.7728   26.5274 C   0  0  0  0  0  0  0  0  0  0  0  0
   33.5544   16.5789   26.2848 C   0  0  0  0  0  0  0  0  0  0  0  0
   33.8837   16.9340   25.4100 O   0  0  0  0  0  0  0  0  0  0  0  0
   34.1466   15.9983   26.8435 N   0  0  0  0  0  0  0  0  0  0  0  0
   33.8224   15.6486   27.7049 H   0  0  0  0  0  0  0  0  0  0  0  0
   31.8476   16.2849   26.2639 N   0  0  0  0  0  0  0  0  0  0  0  0
   32.6328   16.8043   26.6010 C   0  0  0  0  0  0  0  0  0  0  0  0
   30.9076   16.5148   26.5863 H   0  0  0  0  0  0  0  0  0  0  0  0
   31.9866   15.5252   25.5975 H   0  0  0  0  0  0  0  0  0  0  0  0
   32.4965   17.5491   27.2542 C   0  0  0  0  0  0  0  0  0  0  0  0
   32.9192   18.4406   27.0914 O   0  0  0  0  0  0  0  0  0  0  0  0
   31.9376   17.4023   28.0703 C   0  0  0  0  0  0  0  0  0  0  0  0
   33.4614   18.5830   26.2997 H   0  0  0  0  0  0  0  0  0  0  0  0
   35.8248   16.4026   26.7026 C   0  0  0  0  0  0  0  0  0  0  0  0
   36.1692   16.5237   27.6336 C   0  0  0  0  0  0  0  0  0  0  0  0
   36.6014   17.3857   27.8987 C   0  0  0  0  0  0  0  0  0  0  0  0
   36.0419   18.2015   28.0446 O   0  0  0  0  0  0  0  0  0  0  0  0
   37.5932   17.4318   28.0179 N   0  0  0  0  0  0  0  0  0  0  0  0
   38.1441   16.6285   27.8743 H   0  0  0  0  0  0  0  0  0  0  0  0
   38.0187   18.2803   28.2789 H   0  0  0  0  0  0  0  0  0  0  0  0
   35.2402   13.6310   24.2074 C   0  0  0  0  0  0  0  0  0  0  0  0
   35.0934   13.8851   23.2515 C   0  0  0  0  0  0  0  0  0  0  0  0
   34.2471   13.6218   22.7885 C   0  0  0  0  0  0  0  0  0  0  0  0
   34.1076   12.6737   22.5026 O   0  0  0  0  0  0  0  0  0  0  0  0
   33.5402   14.3066   22.6112 N   0  0  0  0  0  0  0  0  0  0  0  0
   33.6775   15.2400   22.8927 H   0  0  0  0  0  0  0  0  0  0  0  0
   32.7069   14.0474   22.1554 H   0  0  0  0  0  0  0  0  0  0  0  0
   38.1776    9.4196   26.3535 C   0  0  0  0  0  0  0  0  0  0  0  0
   37.8728    8.5313   26.0100 O   0  0  0  0  0  0  0  0  0  0  0  0
   38.5250    7.8641   25.7448 H   0  0  0  0  0  0  0  0  0  0  0  0
   36.6329    8.8584   29.4636 C   0  0  0  0  0  0  0  0  0  0  0  0
   37.2985    8.1788   29.7719 C   0  0  0  0  0  0  0  0  0  0  0  0
   37.5898    7.3686   29.2633 C   0  0  0  0  0  0  0  0  0  0  0  0
   38.2611    6.8790   29.8200 N   0  0  0  0  0  0  0  0  0  0  0  0
   38.3846    7.3868   30.6727 C   0  0  0  0  0  0  0  0  0  0  0  0
   37.7896    8.1901   30.6428 N   0  0  0  0  0  0  0  0  0  0  0  0
   37.7028    8.8722   31.3474 H   0  0  0  0  0  0  0  0  0  0  0  0
 95 96  1  0  0  0
 95 97  1  0  0  0
 95 98  1  0  0  0
 96 91  1  0  0  0
 96 99  1  0  0  0
 91 92  2  0  0  0
 91 93  1  0  0  0
 93 90  1  0  0  0
 93 94  1  0  0  0
 90103  1  0  0  0
 90 86  1  0  0  0
103104  1  0  0  0
104105  1  0  0  0
105106  2  0  0  0
105107  1  0  0  0
107108  1  0  0  0
107109  1  0  0  0
 86 87  2  0  0  0
 86 88  1  0  0  0
 88 85  1  0  0  0
 88 89  1  0  0  0
 85110  1  0  0  0
 85 81  1  0  0  0
110111  1  0  0  0
111112  1  0  0  0
112113  2  0  0  0
112114  1  0  0  0
114115  1  0  0  0
114116  1  0  0  0
 81 82  2  0  0  0
 81 83  1  0  0  0
 83 79  1  0  0  0
 83 84  1  0  0  0
 79 80  1  0  0  0
 79 75  1  0  0  0
 75 76  2  0  0  0
 75 77  1  0  0  0
 77 74  1  0  0  0
 77 78  1  0  0  0
 74117  1  0  0  0
 74 70  1  0  0  0
117118  1  0  0  0
118119  1  0  0  0
 70 71  2  0  0  0
 70 72  1  0  0  0
 72 69  1  0  0  0
 72 73  1  0  0  0
 69120  1  0  0  0
 69 65  1  0  0  0
120121  1  0  0  0
121125  1  0  0  0
121122  2  0  0  0
122123  1  0  0  0
123124  2  0  0  0
124125  1  0  0  0
125126  1  0  0  0
 65 66  2  0  0  0
 65 67  1  0  0  0
 67  1  1  0  0  0
 67 68  1  0  0  0
  1  2  1  0  0  0
  1 10  1  0  0  0
  2  8  2  0  0  0
  2  3  1  0  0  0
  3  4  2  0  0  0
  4  5  1  0  0  0
  5  6  1  0  0  0
  5  7  2  0  0  0
  6  9  1  0  0  0
  7  8  1  0  0  0
 10 11  2  0  0  0
 10 12  1  0  0  0
 12 14  1  0  0  0
 12 13  1  0  0  0
 14 58  1  0  0  0
 14 15  1  0  0  0
 58 59  1  0  0  0
 59 60  1  0  0  0
 60 61  1  0  0  0
 61 62  1  0  0  0
 62 63  1  0  0  0
 62 64  1  0  0  0
 15 16  2  0  0  0
 15 17  1  0  0  0
 17 19  1  0  0  0
 17 18  1  0  0  0
 19 51  1  0  0  0
 19 20  1  0  0  0
 51 52  1  0  0  0
 52 53  1  0  0  0
 53 54  2  0  0  0
 53 55  1  0  0  0
 55 56  1  0  0  0
 55 57  1  0  0  0
 20 21  2  0  0  0
 20 22  1  0  0  0
 22 24  1  0  0  0
 22 23  1  0  0  0
 24 44  1  0  0  0
 24 25  1  0  0  0
 44 45  1  0  0  0
 45 49  1  0  0  0
 45 46  2  0  0  0
 46 47  1  0  0  0
 47 48  2  0  0  0
 48 49  1  0  0  0
 49 50  1  0  0  0
 25 26  2  0  0  0
 25 27  1  0  0  0
 27 29  1  0  0  0
 27 28  1  0  0  0
 29 41  1  0  0  0
 29 30  1  0  0  0
 41 42  1  0  0  0
 42 43  1  0  0  0
 30 31  2  0  0  0
 30 32  1  0  0  0
 32 36  1  0  0  0
 32 33  1  0  0  0
 33 34  1  0  0  0
 34 35  1  0  0  0
 35 36  1  0  0  0
 36 37  1  0  0  0
 37 38  1  0  0  0
 37 39  2  0  0  0
 38 40  1  0  0  0
 99100  1  0  0  0
 99101  1  0  0  0
100102  1  0  0  0
M  END
> <minimizedAffinity>
-8.43601

$$$$



126129  0  0  0  0  0  0  0  0999 V2000
   36.2312   12.9469   25.8897 C   0  0  0  0  0  0  0  0  0  0  0  0
   35.2767   13.1168   26.1348 C   0  0  0  0  0  0  0  0  0  0  0  0
   34.5420   12.7897   25.5404 C   0  0  0  0  0  0  0  0  0  0  0  0
   33.5875   12.9596   25.7856 C   0  0  0  0  0  0  0  0  0  0  0  0
   33.3677   13.4566   26.6250 C   0  0  0  0  0  0  0  0  0  0  0  0
   32.4132   13.6264   26.8700 O   0  0  0  0  0  0  0  0  0  0  0  0
   34.1023   13.7837   27.2193 C   0  0  0  0  0  0  0  0  0  0  0  0
   35.0568   13.6138   26.9743 C   0  0  0  0  0  0  0  0  0  0  0  0
   31.7248   13.3199   26.3131 H   0  0  0  0  0  0  0  0  0  0  0  0
   36.5761   13.2320   24.9955 C   0  0  0  0  0  0  0  0  0  0  0  0
   36.7046   14.2033   24.7955 O   0  0  0  0  0  0  0  0  0  0  0  0
   36.7926   12.5457   24.3011 N   0  0  0  0  0  0  0  0  0  0  0  0
   36.6661   11.5894   24.4979 H   0  0  0  0  0  0  0  0  0  0  0  0
   37.1375   12.8307   23.4067 C   0  0  0  0  0  0  0  0  0  0  0  0
   38.1206   12.8211   23.2237 C   0  0  0  0  0  0  0  0  0  0  0  0
   38.5260   13.5186   22.6330 O   0  0  0  0  0  0  0  0  0  0  0  0
   38.6982   12.1139   23.6315 N   0  0  0  0  0  0  0  0  0  0  0  0
   38.2990   11.4272   24.2131 H   0  0  0  0  0  0  0  0  0  0  0  0
   39.6812   12.1043   23.4485 C   0  0  0  0  0  0  0  0  0  0  0  0
   40.3173   12.4963   24.1130 C   0  0  0  0  0  0  0  0  0  0  0  0
   40.0738   12.5234   25.0825 O   0  0  0  0  0  0  0  0  0  0  0  0
   41.1971   12.8612   23.8081 N   0  0  0  0  0  0  0  0  0  0  0  0
   41.4368   12.8346   22.8536 H   0  0  0  0  0  0  0  0  0  0  0  0
   41.8332   13.2532   24.4726 C   0  0  0  0  0  0  0  0  0  0  0  0
   41.9069   14.2458   24.5689 C   0  0  0  0  0  0  0  0  0  0  0  0
   41.7616   14.8372   23.7757 O   0  0  0  0  0  0  0  0  0  0  0  0
   42.1259   14.6471   25.4583 N   0  0  0  0  0  0  0  0  0  0  0  0
   42.2690   14.0648   26.2391 H   0  0  0  0  0  0  0  0  0  0  0  0
   42.1997   15.6397   25.5545 C   0  0  0  0  0  0  0  0  0  0  0  0
   41.5882   16.1285   26.1767 C   0  0  0  0  0  0  0  0  0  0  0  0
   40.8996   16.7549   25.8115 O   0  0  0  0  0  0  0  0  0  0  0  0
   41.6653   15.9908   27.1643 N   0  0  0  0  0  0  0  0  0  0  0  0
   42.3179   15.3890   27.6246 C   0  0  0  0  0  0  0  0  0  0  0  0
   42.1592   15.4571   28.6096 C   0  0  0  0  0  0  0  0  0  0  0  0
   41.4086   16.1010   28.7579 C   0  0  0  0  0  0  0  0  0  0  0  0
   41.1033   16.4308   27.8647 C   0  0  0  0  0  0  0  0  0  0  0  0
   40.3657   17.0857   27.7006 C   0  0  0  0  0  0  0  0  0  0  0  0
   39.4357   16.7593   27.5316 O   0  0  0  0  0  0  0  0  0  0  0  0
   40.5580   18.0671   27.7056 O   0  0  0  0  0  0  0  0  0  0  0  0
   39.2555   15.8398   27.5270 H   0  0  0  0  0  0  0  0  0  0  0  0
   42.8849   16.1435   25.0286 C   0  0  0  0  0  0  0  0  0  0  0  0
   43.8281   16.1957   25.3567 S   0  0  0  0  0  0  0  0  0  0  0  0
   44.1790   15.5815   26.5182 H   0  0  0  0  0  0  0  0  0  0  0  0
   42.3956   12.6526   25.0409 C   0  0  0  0  0  0  0  0  0  0  0  0
   43.1852   12.1843   24.6444 C   0  0  0  0  0  0  0  0  0  0  0  0
   43.2247   11.2212   24.3780 C   0  0  0  0  0  0  0  0  0  0  0  0
   44.1378   11.0385   24.0136 N   0  0  0  0  0  0  0  0  0  0  0  0
   44.6628   11.8887   24.0548 C   0  0  0  0  0  0  0  0  0  0  0  0
   44.0740   12.5968   24.4446 N   0  0  0  0  0  0  0  0  0  0  0  0
   44.3253   13.5353   24.6038 H   0  0  0  0  0  0  0  0  0  0  0  0
   40.0281   11.7026   22.6009 C   0  0  0  0  0  0  0  0  0  0  0  0
   39.9700   10.7151   22.4552 C   0  0  0  0  0  0  0  0  0  0  0  0
   40.3801   10.3048   21.6406 C   0  0  0  0  0  0  0  0  0  0  0  0
   41.3712   10.3344   21.5108 O   0  0  0  0  0  0  0  0  0  0  0  0
   39.7990    9.8651   20.9558 N   0  0  0  0  0  0  0  0  0  0  0  0
   38.8233    9.8360   21.0836 H   0  0  0  0  0  0  0  0  0  0  0  0
   40.2027    9.4613   20.1538 H   0  0  0  0  0  0  0  0  0  0  0  0
   36.4994   13.1254   22.6955 C   0  0  0  0  0  0  0  0  0  0  0  0
   35.9728   12.4464   22.1837 C   0  0  0  0  0  0  0  0  0  0  0  0
   35.1716   12.7290   21.6562 C   0  0  0  0  0  0  0  0  0  0  0  0
   34.6957   12.0673   21.0768 C   0  0  0  0  0  0  0  0  0  0  0  0
   33.9599   12.3710   20.4715 N   0  0  0  0  0  0  0  0  0  0  0  0
   33.6949   13.3556   20.4450 H   0  0  0  0  0  0  0  0  0  0  0  0
   33.4744   11.6961   19.8805 H   0  0  0  0  0  0  0  0  0  0  0  0
   36.8229   11.4961   26.6281 C   0  0  0  0  0  0  0  0  0  0  0  0
   36.1954   10.9551   26.0679 O   0  0  0  0  0  0  0  0  0  0  0  0
   36.8407   12.4920   26.5389 N   0  0  0  0  0  0  0  0  0  0  0  0
   37.4584   13.0245   27.0903 H   0  0  0  0  0  0  0  0  0  0  0  0
   37.4324   11.0412   27.2773 C   0  0  0  0  0  0  0  0  0  0  0  0
   37.6127   11.7473   28.8485 C   0  0  0  0  0  0  0  0  0  0  0  0
   36.7276   11.3693   29.1200 O   0  0  0  0  0  0  0  0  0  0  0  0
   37.9651   11.5833   27.9272 N   0  0  0  0  0  0  0  0  0  0  0  0
   38.8365   11.9555   27.6599 H   0  0  0  0  0  0  0  0  0  0  0  0
   38.1454   12.2894   29.4984 C   0  0  0  0  0  0  0  0  0  0  0  0
   38.1780   14.0210   29.4751 C   0  0  0  0  0  0  0  0  0  0  0  0
   38.9149   13.9980   28.7994 O   0  0  0  0  0  0  0  0  0  0  0  0
   37.7933   13.1667   29.8246 N   0  0  0  0  0  0  0  0  0  0  0  0
   37.0679   13.1894   30.4897 H   0  0  0  0  0  0  0  0  0  0  0  0
   37.8260   14.8983   29.8012 C   0  0  0  0  0  0  0  0  0  0  0  0
   38.2529   15.3479   30.5858 C   0  0  0  0  0  0  0  0  0  0  0  0
   36.9238   16.3174   29.3866 C   0  0  0  0  0  0  0  0  0  0  0  0
   37.5795   16.8811   29.8889 O   0  0  0  0  0  0  0  0  0  0  0  0
   37.0470   15.3261   29.3427 N   0  0  0  0  0  0  0  0  0  0  0  0
   36.4014   14.7712   28.8482 H   0  0  0  0  0  0  0  0  0  0  0  0
   36.1447   16.7453   28.9281 C   0  0  0  0  0  0  0  0  0  0  0  0
   36.0610   17.6850   27.4756 C   0  0  0  0  0  0  0  0  0  0  0  0
   36.0301   18.5234   28.0198 O   0  0  0  0  0  0  0  0  0  0  0  0
   36.1183   16.7960   27.9298 N   0  0  0  0  0  0  0  0  0  0  0  0
   36.1487   15.9706   27.3940 H   0  0  0  0  0  0  0  0  0  0  0  0
   36.0346   17.7357   26.4772 C   0  0  0  0  0  0  0  0  0  0  0  0
   37.3836   18.1968   25.4936 C   0  0  0  0  0  0  0  0  0  0  0  0
   37.6898   17.2453   25.4675 O   0  0  0  0  0  0  0  0  0  0  0  0
   36.5559   18.4421   25.9985 N   0  0  0  0  0  0  0  0  0  0  0  0
   36.2544   19.3789   26.0243 H   0  0  0  0  0  0  0  0  0  0  0  0
   38.8308   19.1318   25.3159 N   0  0  0  0  0  0  0  0  0  0  0  0
   37.9050   18.9033   25.0148 C   0  0  0  0  0  0  0  0  0  0  0  0
   39.3626   19.8523   24.8277 H   0  0  0  0  0  0  0  0  0  0  0  0
   39.2433   18.6443   26.1113 H   0  0  0  0  0  0  0  0  0  0  0  0
   37.5005   19.3811   24.2351 C   0  0  0  0  0  0  0  0  0  0  0  0
   37.1520   18.8606   23.4556 O   0  0  0  0  0  0  0  0  0  0  0  0
   37.4446   20.3795   24.2347 C   0  0  0  0  0  0  0  0  0  0  0  0
   37.2063   17.8920   23.4560 H   0  0  0  0  0  0  0  0  0  0  0  0
   35.4868   17.0801   25.9576 C   0  0  0  0  0  0  0  0  0  0  0  0
   34.5794   17.3384   25.6261 C   0  0  0  0  0  0  0  0  0  0  0  0
   34.0617   16.7102   25.0452 C   0  0  0  0  0  0  0  0  0  0  0  0
   33.1515   16.4052   25.3253 O   0  0  0  0  0  0  0  0  0  0  0  0
   34.4543   16.3870   24.1841 N   0  0  0  0  0  0  0  0  0  0  0  0
   35.3504   16.6873   23.9084 H   0  0  0  0  0  0  0  0  0  0  0  0
   33.9447   15.7686   23.6122 H   0  0  0  0  0  0  0  0  0  0  0  0
   35.3922   17.1224   29.4680 C   0  0  0  0  0  0  0  0  0  0  0  0
   34.6192   16.5413   29.7224 C   0  0  0  0  0  0  0  0  0  0  0  0
   33.8943   16.9021   30.3093 C   0  0  0  0  0  0  0  0  0  0  0  0
   33.3752   16.2843   30.8999 O   0  0  0  0  0  0  0  0  0  0  0  0
   33.6886   17.8808   30.3055 N   0  0  0  0  0  0  0  0  0  0  0  0
   34.1997   18.4890   29.7241 H   0  0  0  0  0  0  0  0  0  0  0  0
   32.9750   18.2360   30.8833 H   0  0  0  0  0  0  0  0  0  0  0  0
   39.0301   11.9542   29.8222 C   0  0  0  0  0  0  0  0  0  0  0  0
   39.0693   11.2638   30.5445 O   0  0  0  0  0  0  0  0  0  0  0  0
   39.9276   10.9386   30.8585 H   0  0  0  0  0  0  0  0  0  0  0  0
   37.5093   10.0441   27.2766 C   0  0  0  0  0  0  0  0  0  0  0  0
   38.3439    9.6072   26.9413 C   0  0  0  0  0  0  0  0  0  0  0  0
   38.9405    8.9994   27.4654 C   0  0  0  0  0  0  0  0  0  0  0  0
   39.6939    8.7179   26.8711 N   0  0  0  0  0  0  0  0  0  0  0  0
   39.5629    9.1517   25.9796 C   0  0  0  0  0  0  0  0  0  0  0  0
   38.7286    9.7013   26.0231 N   0  0  0  0  0  0  0  0  0  0  0  0
   38.3520   10.2404   25.2904 H   0  0  0  0  0  0  0  0  0  0  0  0
 95 96  1  0  0  0
 95 97  1  0  0  0
 95 98  1  0  0  0
 96 91  1  0  0  0
 96 99  1  0  0  0
 91 92  2  0  0  0
 91 93  1  0  0  0
 93 90  1  0  0  0
 93 94  1  0  0  0
 90103  1  0  0  0
 90 86  1  0  0  0
103104  1  0  0  0
104105  1  0  0  0
105106  2  0  0  0
105107  1  0  0  0
107108  1  0  0  0
107109  1  0  0  0
 86 87  2  0  0  0
 86 88  1  0  0  0
 88 85  1  0  0  0
 88 89  1  0  0  0
 85110  1  0  0  0
 85 81  1  0  0  0
110111  1  0  0  0
111112  1  0  0  0
112113  2  0  0  0
112114  1  0  0  0
114115  1  0  0  0
114116  1  0  0  0
 81 82  2  0  0  0
 81 83  1  0  0  0
 83 79  1  0  0  0
 83 84  1  0  0  0
 79 80  1  0  0  0
 79 75  1  0  0  0
 75 76  2  0  0  0
 75 77  1  0  0  0
 77 74  1  0  0  0
 77 78  1  0  0  0
 74117  1  0  0  0
 74 70  1  0  0  0
117118  1  0  0  0
118119  1  0  0  0
 70 71  2  0  0  0
 70 72  1  0  0  0
 72 69  1  0  0  0
 72 73  1  0  0  0
 69120  1  0  0  0
 69 65  1  0  0  0
120121  1  0  0  0
121125  1  0  0  0
121122  2  0  0  0
122123  1  0  0  0
123124  2  0  0  0
124125  1  0  0  0
125126  1  0  0  0
 65 66  2  0  0  0
 65 67  1  0  0  0
 67  1  1  0  0  0
 67 68  1  0  0  0
  1  2  1  0  0  0
  1 10  1  0  0  0
  2  8  2  0  0  0
  2  3  1  0  0  0
  3  4  2  0  0  0
  4  5  1  0  0  0
  5  6  1  0  0  0
  5  7  2  0  0  0
  6  9  1  0  0  0
  7  8  1  0  0  0
 10 11  2  0  0  0
 10 12  1  0  0  0
 12 14  1  0  0  0
 12 13  1  0  0  0
 14 58  1  0  0  0
 14 15  1  0  0  0
 58 59  1  0  0  0
 59 60  1  0  0  0
 60 61  1  0  0  0
 61 62  1  0  0  0
 62 63  1  0  0  0
 62 64  1  0  0  0
 15 16  2  0  0  0
 15 17  1  0  0  0
 17 19  1  0  0  0
 17 18  1  0  0  0
 19 51  1  0  0  0
 19 20  1  0  0  0
 51 52  1  0  0  0
 52 53  1  0  0  0
 53 54  2  0  0  0
 53 55  1  0  0  0
 55 56  1  0  0  0
 55 57  1  0  0  0
 20 21  2  0  0  0
 20 22  1  0  0  0
 22 24  1  0  0  0
 22 23  1  0  0  0
 24 44  1  0  0  0
 24 25  1  0  0  0
 44 45  1  0  0  0
 45 49  1  0  0  0
 45 46  2  0  0  0
 46 47  1  0  0  0
 47 48  2  0  0  0
 48 49  1  0  0  0
 49 50  1  0  0  0
 25 26  2  0  0  0
 25 27  1  0  0  0
 27 29  1  0  0  0
 27 28  1  0  0  0
 29 41  1  0  0  0
 29 30  1  0  0  0
 41 42  1  0  0  0
 42 43  1  0  0  0
 30 31  2  0  0  0
 30 32  1  0  0  0
 32 36  1  0  0  0
 32 33  1  0  0  0
 33 34  1  0  0  0
 34 35  1  0  0  0
 35 36  1  0  0  0
 36 37  1  0  0  0
 37 38  1  0  0  0
 37 39  2  0  0  0
 38 40  1  0  0  0
 99100  1  0  0  0
 99101  1  0  0  0
100102  1  0  0  0
M  END
> <minimizedAffinity>
-8.33790

$$$$



126129  0  0  0  0  0  0  0  0999 V2000
   40.1845    9.4283   35.4539 C   0  0  0  0  0  0  0  0  0  0  0  0
   40.4498    9.7108   36.3758 C   0  0  0  0  0  0  0  0  0  0  0  0
   40.0534    9.2541   37.1722 C   0  0  0  0  0  0  0  0  0  0  0  0
   40.3187    9.5366   38.0941 C   0  0  0  0  0  0  0  0  0  0  0  0
   40.9803   10.2758   38.2195 C   0  0  0  0  0  0  0  0  0  0  0  0
   41.2456   10.5583   39.1413 O   0  0  0  0  0  0  0  0  0  0  0  0
   41.3767   10.7326   37.4231 C   0  0  0  0  0  0  0  0  0  0  0  0
   41.1115   10.4501   36.5012 C   0  0  0  0  0  0  0  0  0  0  0  0
   40.8742   10.1304   39.8876 H   0  0  0  0  0  0  0  0  0  0  0  0
   40.8738    9.0748   34.8215 C   0  0  0  0  0  0  0  0  0  0  0  0
   41.8114    9.4204   34.8598 O   0  0  0  0  0  0  0  0  0  0  0  0
   40.6255    8.3758   34.1510 N   0  0  0  0  0  0  0  0  0  0  0  0
   39.7024    8.0357   34.1133 H   0  0  0  0  0  0  0  0  0  0  0  0
   41.3148    8.0223   33.5185 C   0  0  0  0  0  0  0  0  0  0  0  0
   41.4541    8.4645   32.6325 C   0  0  0  0  0  0  0  0  0  0  0  0
   40.7428    8.4146   31.9315 O   0  0  0  0  0  0  0  0  0  0  0  0
   42.3048    8.9566   32.4476 N   0  0  0  0  0  0  0  0  0  0  0  0
   43.0051    9.0057   33.1378 H   0  0  0  0  0  0  0  0  0  0  0  0
   42.4441    9.3989   31.5616 C   0  0  0  0  0  0  0  0  0  0  0  0
   43.0138    8.9590   30.8674 C   0  0  0  0  0  0  0  0  0  0  0  0
   43.9091    8.5894   31.1160 O   0  0  0  0  0  0  0  0  0  0  0  0
   42.6883    8.8888   29.9244 N   0  0  0  0  0  0  0  0  0  0  0  0
   41.8068    9.2527   29.6796 H   0  0  0  0  0  0  0  0  0  0  0  0
   43.2580    8.4490   29.2302 C   0  0  0  0  0  0  0  0  0  0  0  0
   43.1220    7.4829   29.0104 C   0  0  0  0  0  0  0  0  0  0  0  0
   42.1984    7.1286   28.8644 O   0  0  0  0  0  0  0  0  0  0  0  0
   43.9096    6.8712   28.9368 N   0  0  0  0  0  0  0  0  0  0  0  0
   44.8189    7.2201   29.0806 H   0  0  0  0  0  0  0  0  0  0  0  0
   43.7736    5.9052   28.7170 C   0  0  0  0  0  0  0  0  0  0  0  0
   43.8928    5.2097   29.4256 C   0  0  0  0  0  0  0  0  0  0  0  0
   43.1257    4.6226   29.6840 O   0  0  0  0  0  0  0  0  0  0  0  0
   44.7792    5.1013   29.8757 N   0  0  0  0  0  0  0  0  0  0  0  0
   45.6028    5.6366   29.6886 C   0  0  0  0  0  0  0  0  0  0  0  0
   46.3302    5.3046   30.2893 C   0  0  0  0  0  0  0  0  0  0  0  0
   45.9560    4.5641   30.8475 C   0  0  0  0  0  0  0  0  0  0  0  0
   44.9975    4.4384   30.5920 C   0  0  0  0  0  0  0  0  0  0  0  0
   44.3678    3.7677   30.9838 C   0  0  0  0  0  0  0  0  0  0  0  0
   43.8124    4.0086   31.7797 O   0  0  0  0  0  0  0  0  0  0  0  0
   44.2936    2.8559   30.5797 O   0  0  0  0  0  0  0  0  0  0  0  0
   43.8820    4.8629   32.1582 H   0  0  0  0  0  0  0  0  0  0  0  0
   43.5185    5.6347   27.7887 C   0  0  0  0  0  0  0  0  0  0  0  0
   44.2163    5.5779   27.0748 S   0  0  0  0  0  0  0  0  0  0  0  0
   45.5125    5.8687   27.3662 H   0  0  0  0  0  0  0  0  0  0  0  0
   43.9636    8.9751   28.7557 C   0  0  0  0  0  0  0  0  0  0  0  0
   43.7044    9.6502   28.0650 C   0  0  0  0  0  0  0  0  0  0  0  0
   43.8451   10.6384   28.1270 C   0  0  0  0  0  0  0  0  0  0  0  0
   43.4866   11.0546   27.2915 N   0  0  0  0  0  0  0  0  0  0  0  0
   43.1244   10.3237   26.7129 C   0  0  0  0  0  0  0  0  0  0  0  0
   43.2590    9.4558   27.1911 N   0  0  0  0  0  0  0  0  0  0  0  0
   42.9987    8.5661   26.8596 H   0  0  0  0  0  0  0  0  0  0  0  0
   42.0137   10.2809   31.3698 C   0  0  0  0  0  0  0  0  0  0  0  0
   42.3735   11.1145   31.7890 C   0  0  0  0  0  0  0  0  0  0  0  0
   41.7864   11.9178   31.8882 C   0  0  0  0  0  0  0  0  0  0  0  0
   41.1147   12.1367   31.1803 O   0  0  0  0  0  0  0  0  0  0  0  0
   41.8709   12.5023   32.6951 N   0  0  0  0  0  0  0  0  0  0  0  0
   42.5322   12.2868   33.3919 H   0  0  0  0  0  0  0  0  0  0  0  0
   41.2929   13.2933   32.7928 H   0  0  0  0  0  0  0  0  0  0  0  0
   41.8647    7.2266   33.7722 C   0  0  0  0  0  0  0  0  0  0  0  0
   41.4169    6.3651   34.0120 C   0  0  0  0  0  0  0  0  0  0  0  0
   41.9459    5.6254   34.4279 C   0  0  0  0  0  0  0  0  0  0  0  0
   41.7616    4.6756   34.1752 C   0  0  0  0  0  0  0  0  0  0  0  0
   42.1666    3.9299   34.7042 N   0  0  0  0  0  0  0  0  0  0  0  0
   42.7676    4.1381   35.5017 H   0  0  0  0  0  0  0  0  0  0  0  0
   41.9786    2.9611   34.4465 H   0  0  0  0  0  0  0  0  0  0  0  0
   38.9239   10.2948   34.6415 C   0  0  0  0  0  0  0  0  0  0  0  0
   39.5724   11.0194   34.4080 O   0  0  0  0  0  0  0  0  0  0  0  0
   39.2300    9.4993   35.1644 N   0  0  0  0  0  0  0  0  0  0  0  0
   38.5916    8.7860   35.3943 H   0  0  0  0  0  0  0  0  0  0  0  0
   37.9694   10.3658   34.3520 C   0  0  0  0  0  0  0  0  0  0  0  0
   37.5888    9.9950   32.7035 C   0  0  0  0  0  0  0  0  0  0  0  0
   37.6483    9.0183   32.9094 O   0  0  0  0  0  0  0  0  0  0  0  0
   37.7493   10.6688   33.4248 N   0  0  0  0  0  0  0  0  0  0  0  0
   37.6906   11.6304   33.2221 H   0  0  0  0  0  0  0  0  0  0  0  0
   37.3687   10.2980   31.7763 C   0  0  0  0  0  0  0  0  0  0  0  0
   35.7973   10.7704   31.2216 C   0  0  0  0  0  0  0  0  0  0  0  0
   35.6077    9.8256   30.9544 O   0  0  0  0  0  0  0  0  0  0  0  0
   36.6778   11.0066   31.6326 N   0  0  0  0  0  0  0  0  0  0  0  0
   36.8645   11.9367   31.8957 H   0  0  0  0  0  0  0  0  0  0  0  0
   35.1064   11.4789   31.0779 C   0  0  0  0  0  0  0  0  0  0  0  0
   34.6230   11.8719   31.8601 C   0  0  0  0  0  0  0  0  0  0  0  0
   34.0549   12.3001   29.9734 C   0  0  0  0  0  0  0  0  0  0  0  0
   33.4184   12.4903   30.7209 O   0  0  0  0  0  0  0  0  0  0  0  0
   34.8990   11.7945   30.1520 N   0  0  0  0  0  0  0  0  0  0  0  0
   35.5257   11.6073   29.4161 H   0  0  0  0  0  0  0  0  0  0  0  0
   33.8474   12.6158   29.0475 C   0  0  0  0  0  0  0  0  0  0  0  0
   34.2984   14.2138   28.5548 C   0  0  0  0  0  0  0  0  0  0  0  0
   35.2310   13.8973   28.3816 O   0  0  0  0  0  0  0  0  0  0  0  0
   33.6066   13.5731   28.8878 N   0  0  0  0  0  0  0  0  0  0  0  0
   32.6885   13.8847   29.0583 H   0  0  0  0  0  0  0  0  0  0  0  0
   34.0576   15.1712   28.3951 C   0  0  0  0  0  0  0  0  0  0  0  0
   33.7364   16.1012   29.8206 C   0  0  0  0  0  0  0  0  0  0  0  0
   34.7133   16.1111   30.0342 O   0  0  0  0  0  0  0  0  0  0  0  0
   33.4086   15.6313   29.0010 N   0  0  0  0  0  0  0  0  0  0  0  0
   32.4469   15.6216   28.7906 H   0  0  0  0  0  0  0  0  0  0  0  0
   32.5870   16.0360   31.1146 N   0  0  0  0  0  0  0  0  0  0  0  0
   33.0873   16.5614   30.4264 C   0  0  0  0  0  0  0  0  0  0  0  0
   31.9250   16.5052   31.7326 H   0  0  0  0  0  0  0  0  0  0  0  0
   32.7386   15.0308   31.1986 H   0  0  0  0  0  0  0  0  0  0  0  0
   32.9387   17.5468   30.3441 C   0  0  0  0  0  0  0  0  0  0  0  0
   33.7146   18.1583   30.1889 O   0  0  0  0  0  0  0  0  0  0  0  0
   32.0141   17.9208   30.4171 C   0  0  0  0  0  0  0  0  0  0  0  0
   34.6114   17.7955   30.1181 H   0  0  0  0  0  0  0  0  0  0  0  0
   34.4658   15.6684   27.6296 C   0  0  0  0  0  0  0  0  0  0  0  0
   33.9023   15.9300   26.8460 C   0  0  0  0  0  0  0  0  0  0  0  0
   34.3056   16.4455   26.0899 C   0  0  0  0  0  0  0  0  0  0  0  0
   35.0023   16.0215   25.5112 O   0  0  0  0  0  0  0  0  0  0  0  0
   34.0123   17.3849   25.9125 N   0  0  0  0  0  0  0  0  0  0  0  0
   33.3264   17.8022   26.4823 H   0  0  0  0  0  0  0  0  0  0  0  0
   34.4094   17.8923   25.1682 H   0  0  0  0  0  0  0  0  0  0  0  0
   33.8807   11.9740   28.2813 C   0  0  0  0  0  0  0  0  0  0  0  0
   33.0330   11.6697   27.8468 C   0  0  0  0  0  0  0  0  0  0  0  0
   33.0635   11.2070   26.9608 C   0  0  0  0  0  0  0  0  0  0  0  0
   33.6500   11.5604   26.2320 O   0  0  0  0  0  0  0  0  0  0  0  0
   32.5074   10.3909   26.8036 N   0  0  0  0  0  0  0  0  0  0  0  0
   31.9299   10.0429   27.5210 H   0  0  0  0  0  0  0  0  0  0  0  0
   32.5373    9.9353   25.9313 H   0  0  0  0  0  0  0  0  0  0  0  0
   37.8395    9.8925   30.9928 C   0  0  0  0  0  0  0  0  0  0  0  0
   38.7490   10.2169   30.7332 O   0  0  0  0  0  0  0  0  0  0  0  0
   39.2057    9.8235   29.9732 H   0  0  0  0  0  0  0  0  0  0  0  0
   37.2349   10.1338   34.9898 C   0  0  0  0  0  0  0  0  0  0  0  0
   36.6447   10.8532   35.3560 C   0  0  0  0  0  0  0  0  0  0  0  0
   36.9254   11.5834   35.9789 C   0  0  0  0  0  0  0  0  0  0  0  0
   36.1244   12.1503   36.1714 N   0  0  0  0  0  0  0  0  0  0  0  0
   35.3487   11.7705   35.6674 C   0  0  0  0  0  0  0  0  0  0  0  0
   35.6703   10.9688   35.1634 N   0  0  0  0  0  0  0  0  0  0  0  0
   35.1235   10.3943   34.5801 H   0  0  0  0  0  0  0  0  0  0  0  0
 95 96  1  0  0  0
 95 97  1  0  0  0
 95 98  1  0  0  0
 96 91  1  0  0  0
 96 99  1  0  0  0
 91 92  2  0  0  0
 91 93  1  0  0  0
 93 90  1  0  0  0
 93 94  1  0  0  0
 90103  1  0  0  0
 90 86  1  0  0  0
103104  1  0  0  0
104105  1  0  0  0
105106  2  0  0  0
105107  1  0  0  0
107108  1  0  0  0
107109  1  0  0  0
 86 87  2  0  0  0
 86 88  1  0  0  0
 88 85  1  0  0  0
 88 89  1  0  0  0
 85110  1  0  0  0
 85 81  1  0  0  0
110111  1  0  0  0
111112  1  0  0  0
112113  2  0  0  0
112114  1  0  0  0
114115  1  0  0  0
114116  1  0  0  0
 81 82  2  0  0  0
 81 83  1  0  0  0
 83 79  1  0  0  0
 83 84  1  0  0  0
 79 80  1  0  0  0
 79 75  1  0  0  0
 75 76  2  0  0  0
 75 77  1  0  0  0
 77 74  1  0  0  0
 77 78  1  0  0  0
 74117  1  0  0  0
 74 70  1  0  0  0
117118  1  0  0  0
118119  1  0  0  0
 70 71  2  0  0  0
 70 72  1  0  0  0
 72 69  1  0  0  0
 72 73  1  0  0  0
 69120  1  0  0  0
 69 65  1  0  0  0
120121  1  0  0  0
121125  1  0  0  0
121122  2  0  0  0
122123  1  0  0  0
123124  2  0  0  0
124125  1  0  0  0
125126  1  0  0  0
 65 66  2  0  0  0
 65 67  1  0  0  0
 67  1  1  0  0  0
 67 68  1  0  0  0
  1  2  1  0  0  0
  1 10  1  0  0  0
  2  8  2  0  0  0
  2  3  1  0  0  0
  3  4  2  0  0  0
  4  5  1  0  0  0
  5  6  1  0  0  0
  5  7  2  0  0  0
  6  9  1  0  0  0
  7  8  1  0  0  0
 10 11  2  0  0  0
 10 12  1  0  0  0
 12 14  1  0  0  0
 12 13  1  0  0  0
 14 58  1  0  0  0
 14 15  1  0  0  0
 58 59  1  0  0  0
 59 60  1  0  0  0
 60 61  1  0  0  0
 61 62  1  0  0  0
 62 63  1  0  0  0
 62 64  1  0  0  0
 15 16  2  0  0  0
 15 17  1  0  0  0
 17 19  1  0  0  0
 17 18  1  0  0  0
 19 51  1  0  0  0
 19 20  1  0  0  0
 51 52  1  0  0  0
 52 53  1  0  0  0
 53 54  2  0  0  0
 53 55  1  0  0  0
 55 56  1  0  0  0
 55 57  1  0  0  0
 20 21  2  0  0  0
 20 22  1  0  0  0
 22 24  1  0  0  0
 22 23  1  0  0  0
 24 44  1  0  0  0
 24 25  1  0  0  0
 44 45  1  0  0  0
 45 49  1  0  0  0
 45 46  2  0  0  0
 46 47  1  0  0  0
 47 48  2  0  0  0
 48 49  1  0  0  0
 49 50  1  0  0  0
 25 26  2  0  0  0
 25 27  1  0  0  0
 27 29  1  0  0  0
 27 28  1  0  0  0
 29 41  1  0  0  0
 29 30  1  0  0  0
 41 42  1  0  0  0
 42 43  1  0  0  0
 30 31  2  0  0  0
 30 32  1  0  0  0
 32 36  1  0  0  0
 32 33  1  0  0  0
 33 34  1  0  0  0
 34 35  1  0  0  0
 35 36  1  0  0  0
 36 37  1  0  0  0
 37 38  1  0  0  0
 37 39  2  0  0  0
 38 40  1  0  0  0
 99100  1  0  0  0
 99101  1  0  0  0
100102  1  0  0  0
M  END
> <minimizedAffinity>
-8.30755

$$$$



126129  0  0  0  0  0  0  0  0999 V2000
   40.1630    9.3284   34.2701 C   0  0  0  0  0  0  0  0  0  0  0  0
   40.4359    9.4477   35.2247 C   0  0  0  0  0  0  0  0  0  0  0  0
   40.1285    8.7957   35.9178 C   0  0  0  0  0  0  0  0  0  0  0  0
   40.4015    8.9151   36.8725 C   0  0  0  0  0  0  0  0  0  0  0  0
   40.9818    9.6864   37.1339 C   0  0  0  0  0  0  0  0  0  0  0  0
   41.2548    9.8056   38.0885 O   0  0  0  0  0  0  0  0  0  0  0  0
   41.2892   10.3383   36.4408 C   0  0  0  0  0  0  0  0  0  0  0  0
   41.0163   10.2190   35.4862 C   0  0  0  0  0  0  0  0  0  0  0  0
   40.9668    9.1947   38.7380 H   0  0  0  0  0  0  0  0  0  0  0  0
   40.5144    8.5551   33.7425 C   0  0  0  0  0  0  0  0  0  0  0  0
   39.9174    8.0763   33.0988 O   0  0  0  0  0  0  0  0  0  0  0  0
   41.4630    8.2605   33.8586 N   0  0  0  0  0  0  0  0  0  0  0  0
   42.0508    8.7318   34.4923 H   0  0  0  0  0  0  0  0  0  0  0  0
   41.8145    7.4871   33.3310 C   0  0  0  0  0  0  0  0  0  0  0  0
   42.4303    7.6467   32.5594 C   0  0  0  0  0  0  0  0  0  0  0  0
   42.3408    7.1001   31.7269 O   0  0  0  0  0  0  0  0  0  0  0  0
   43.1355    8.3531   32.6204 N   0  0  0  0  0  0  0  0  0  0  0  0
   43.2235    8.8913   33.4400 H   0  0  0  0  0  0  0  0  0  0  0  0
   43.7512    8.5128   31.8488 C   0  0  0  0  0  0  0  0  0  0  0  0
   43.6106    9.3028   31.2521 C   0  0  0  0  0  0  0  0  0  0  0  0
   43.4941    9.1714   30.2676 O   0  0  0  0  0  0  0  0  0  0  0  0
   43.5865   10.2243   31.6399 N   0  0  0  0  0  0  0  0  0  0  0  0
   43.7012   10.3537   32.6091 H   0  0  0  0  0  0  0  0  0  0  0  0
   43.4459   11.0144   31.0432 C   0  0  0  0  0  0  0  0  0  0  0  0
   44.2322   11.5286   30.7009 C   0  0  0  0  0  0  0  0  0  0  0  0
   44.9441   11.8335   31.3335 O   0  0  0  0  0  0  0  0  0  0  0  0
   44.3067   11.7379   29.7259 N   0  0  0  0  0  0  0  0  0  0  0  0
   43.6059   11.4378   29.1030 H   0  0  0  0  0  0  0  0  0  0  0  0
   45.0931   12.2522   29.3835 C   0  0  0  0  0  0  0  0  0  0  0  0
   45.8314   11.7769   28.9050 C   0  0  0  0  0  0  0  0  0  0  0  0
   46.7007   11.6078   29.3693 O   0  0  0  0  0  0  0  0  0  0  0  0
   45.7003   11.4707   27.9620 N   0  0  0  0  0  0  0  0  0  0  0  0
   44.8724   11.5918   27.4145 C   0  0  0  0  0  0  0  0  0  0  0  0
   45.0346   11.1857   26.5151 C   0  0  0  0  0  0  0  0  0  0  0  0
   45.9628   10.8136   26.5070 C   0  0  0  0  0  0  0  0  0  0  0  0
   46.3742   10.9898   27.4012 C   0  0  0  0  0  0  0  0  0  0  0  0
   47.2974   10.7306   27.6848 C   0  0  0  0  0  0  0  0  0  0  0  0
   48.0587   11.3649   27.5495 O   0  0  0  0  0  0  0  0  0  0  0  0
   47.4595    9.8371   28.1036 O   0  0  0  0  0  0  0  0  0  0  0  0
   47.9068   12.2021   27.1570 H   0  0  0  0  0  0  0  0  0  0  0  0
   45.1411   13.2418   29.5197 C   0  0  0  0  0  0  0  0  0  0  0  0
   44.4858   13.8420   29.0613 S   0  0  0  0  0  0  0  0  0  0  0  0
   43.5290   13.3126   28.2526 H   0  0  0  0  0  0  0  0  0  0  0  0
   42.5190   11.2902   30.7889 C   0  0  0  0  0  0  0  0  0  0  0  0
   41.9886   11.8812   31.3967 C   0  0  0  0  0  0  0  0  0  0  0  0
   41.9079   11.7832   32.3886 C   0  0  0  0  0  0  0  0  0  0  0  0
   41.3153   12.5154   32.7243 N   0  0  0  0  0  0  0  0  0  0  0  0
   41.0297   13.0660   31.9398 C   0  0  0  0  0  0  0  0  0  0  0  0
   41.4459   12.6739   31.1193 N   0  0  0  0  0  0  0  0  0  0  0  0
   41.3399   13.0097   30.1999 H   0  0  0  0  0  0  0  0  0  0  0  0
   44.5076    7.8824   31.6739 C   0  0  0  0  0  0  0  0  0  0  0  0
   45.3719    7.9900   32.1652 C   0  0  0  0  0  0  0  0  0  0  0  0
   46.1352    7.3726   31.9752 C   0  0  0  0  0  0  0  0  0  0  0  0
   47.0127    7.7419   31.6690 O   0  0  0  0  0  0  0  0  0  0  0  0
   46.0212    6.3859   32.0913 N   0  0  0  0  0  0  0  0  0  0  0  0
   45.1573    6.0224   32.3927 H   0  0  0  0  0  0  0  0  0  0  0  0
   46.7727    5.7781   31.9042 H   0  0  0  0  0  0  0  0  0  0  0  0
   41.5503    6.5540   33.5750 C   0  0  0  0  0  0  0  0  0  0  0  0
   42.0561    6.0598   34.2821 C   0  0  0  0  0  0  0  0  0  0  0  0
   41.6644    5.2374   34.6947 C   0  0  0  0  0  0  0  0  0  0  0  0
   41.4728    4.4362   34.1279 C   0  0  0  0  0  0  0  0  0  0  0  0
   41.2193    3.5692   34.5569 N   0  0  0  0  0  0  0  0  0  0  0  0
   41.1563    3.5021   35.5728 H   0  0  0  0  0  0  0  0  0  0  0  0
   41.0239    2.7520   33.9788 H   0  0  0  0  0  0  0  0  0  0  0  0
   38.5517    9.8235   33.8716 C   0  0  0  0  0  0  0  0  0  0  0  0
   38.1892    9.0103   34.3271 O   0  0  0  0  0  0  0  0  0  0  0  0
   39.5386    9.9825   33.8431 N   0  0  0  0  0  0  0  0  0  0  0  0
   39.8955   10.7829   33.3946 H   0  0  0  0  0  0  0  0  0  0  0  0
   37.9273   10.4775   33.4446 C   0  0  0  0  0  0  0  0  0  0  0  0
   37.7029   10.6159   31.7327 C   0  0  0  0  0  0  0  0  0  0  0  0
   38.4690   11.2568   31.6841 O   0  0  0  0  0  0  0  0  0  0  0  0
   37.4321   10.2263   32.6130 N   0  0  0  0  0  0  0  0  0  0  0  0
   36.6779    9.5953   32.6609 H   0  0  0  0  0  0  0  0  0  0  0  0
   37.2077   10.3647   30.9011 C   0  0  0  0  0  0  0  0  0  0  0  0
   37.6319    9.0550   29.8502 C   0  0  0  0  0  0  0  0  0  0  0  0
   37.0572    8.4377   30.3874 O   0  0  0  0  0  0  0  0  0  0  0  0
   37.7072   10.0185   30.1070 N   0  0  0  0  0  0  0  0  0  0  0  0
   38.2730   10.6262   29.5781 H   0  0  0  0  0  0  0  0  0  0  0  0
   38.1314    8.7087   29.0560 C   0  0  0  0  0  0  0  0  0  0  0  0
   38.1637    9.2452   28.2128 C   0  0  0  0  0  0  0  0  0  0  0  0
   39.5682    7.7862   29.3467 C   0  0  0  0  0  0  0  0  0  0  0  0
   40.0706    8.6292   29.5391 O   0  0  0  0  0  0  0  0  0  0  0  0
   38.5987    7.8260   29.1052 N   0  0  0  0  0  0  0  0  0  0  0  0
   38.1041    6.9960   28.9158 H   0  0  0  0  0  0  0  0  0  0  0  0
   40.0355    6.9034   29.3959 C   0  0  0  0  0  0  0  0  0  0  0  0
   41.3610    6.6233   28.3167 C   0  0  0  0  0  0  0  0  0  0  0  0
   40.7174    6.4523   27.5707 O   0  0  0  0  0  0  0  0  0  0  0  0
   41.0200    6.8489   29.2293 N   0  0  0  0  0  0  0  0  0  0  0  0
   41.6536    7.0173   29.9637 H   0  0  0  0  0  0  0  0  0  0  0  0
   42.3455    6.5688   28.1501 C   0  0  0  0  0  0  0  0  0  0  0  0
   43.2765    5.2824   28.8416 C   0  0  0  0  0  0  0  0  0  0  0  0
   42.9871    4.6752   28.1017 O   0  0  0  0  0  0  0  0  0  0  0  0
   42.9557    6.2292   28.8658 N   0  0  0  0  0  0  0  0  0  0  0  0
   43.2405    6.8271   29.5943 H   0  0  0  0  0  0  0  0  0  0  0  0
   43.5388    4.7974   30.4836 N   0  0  0  0  0  0  0  0  0  0  0  0
   43.8867    4.9428   29.5574 C   0  0  0  0  0  0  0  0  0  0  0  0
   44.1611    4.4511   31.2137 H   0  0  0  0  0  0  0  0  0  0  0  0
   42.5614    4.9956   30.6982 H   0  0  0  0  0  0  0  0  0  0  0  0
   44.8448    4.7486   29.3471 C   0  0  0  0  0  0  0  0  0  0  0  0
   45.4385    5.4759   29.0027 O   0  0  0  0  0  0  0  0  0  0  0  0
   45.2093    3.8271   29.4811 C   0  0  0  0  0  0  0  0  0  0  0  0
   45.0849    6.3698   28.8727 H   0  0  0  0  0  0  0  0  0  0  0  0
   42.7198    6.8539   27.2677 C   0  0  0  0  0  0  0  0  0  0  0  0
   43.3120    7.6578   27.2120 C   0  0  0  0  0  0  0  0  0  0  0  0
   43.9995    7.7233   26.4888 C   0  0  0  0  0  0  0  0  0  0  0  0
   44.9590    7.5279   26.6918 O   0  0  0  0  0  0  0  0  0  0  0  0
   43.7275    7.9841   25.5625 N   0  0  0  0  0  0  0  0  0  0  0  0
   42.7829    8.1764   25.3627 H   0  0  0  0  0  0  0  0  0  0  0  0
   44.4043    8.0486   24.8505 H   0  0  0  0  0  0  0  0  0  0  0  0
   39.5183    6.0752   29.6116 C   0  0  0  0  0  0  0  0  0  0  0  0
   39.7162    5.5662   30.4493 C   0  0  0  0  0  0  0  0  0  0  0  0
   39.5621    4.5787   30.4825 C   0  0  0  0  0  0  0  0  0  0  0  0
   38.7215    4.1908   30.1042 O   0  0  0  0  0  0  0  0  0  0  0  0
   40.2485    3.9790   30.8939 N   0  0  0  0  0  0  0  0  0  0  0  0
   41.0761    4.3609   31.2662 H   0  0  0  0  0  0  0  0  0  0  0  0
   40.0968    3.0068   30.9265 H   0  0  0  0  0  0  0  0  0  0  0  0
   36.2129   10.4597   30.8636 C   0  0  0  0  0  0  0  0  0  0  0  0
   35.8033   11.3410   30.6279 O   0  0  0  0  0  0  0  0  0  0  0  0
   34.8384   11.4331   30.5916 H   0  0  0  0  0  0  0  0  0  0  0  0
   37.7982   11.3829   33.8493 C   0  0  0  0  0  0  0  0  0  0  0  0
   37.1376   11.5103   34.5890 C   0  0  0  0  0  0  0  0  0  0  0  0
   37.3470   11.8155   35.5180 C   0  0  0  0  0  0  0  0  0  0  0  0
   36.4903   11.8487   36.0329 N   0  0  0  0  0  0  0  0  0  0  0  0
   35.7515   11.5640   35.4221 C   0  0  0  0  0  0  0  0  0  0  0  0
   36.1516   11.3548   34.5298 N   0  0  0  0  0  0  0  0  0  0  0  0
   35.6608   11.0494   33.7328 H   0  0  0  0  0  0  0  0  0  0  0  0
 95 96  1  0  0  0
 95 97  1  0  0  0
 95 98  1  0  0  0
 96 91  1  0  0  0
 96 99  1  0  0  0
 91 92  2  0  0  0
 91 93  1  0  0  0
 93 90  1  0  0  0
 93 94  1  0  0  0
 90103  1  0  0  0
 90 86  1  0  0  0
103104  1  0  0  0
104105  1  0  0  0
105106  2  0  0  0
105107  1  0  0  0
107108  1  0  0  0
107109  1  0  0  0
 86 87  2  0  0  0
 86 88  1  0  0  0
 88 85  1  0  0  0
 88 89  1  0  0  0
 85110  1  0  0  0
 85 81  1  0  0  0
110111  1  0  0  0
111112  1  0  0  0
112113  2  0  0  0
112114  1  0  0  0
114115  1  0  0  0
114116  1  0  0  0
 81 82  2  0  0  0
 81 83  1  0  0  0
 83 79  1  0  0  0
 83 84  1  0  0  0
 79 80  1  0  0  0
 79 75  1  0  0  0
 75 76  2  0  0  0
 75 77  1  0  0  0
 77 74  1  0  0  0
 77 78  1  0  0  0
 74117  1  0  0  0
 74 70  1  0  0  0
117118  1  0  0  0
118119  1  0  0  0
 70 71  2  0  0  0
 70 72  1  0  0  0
 72 69  1  0  0  0
 72 73  1  0  0  0
 69120  1  0  0  0
 69 65  1  0  0  0
120121  1  0  0  0
121125  1  0  0  0
121122  2  0  0  0
122123  1  0  0  0
123124  2  0  0  0
124125  1  0  0  0
125126  1  0  0  0
 65 66  2  0  0  0
 65 67  1  0  0  0
 67  1  1  0  0  0
 67 68  1  0  0  0
  1  2  1  0  0  0
  1 10  1  0  0  0
  2  8  2  0  0  0
  2  3  1  0  0  0
  3  4  2  0  0  0
  4  5  1  0  0  0
  5  6  1  0  0  0
  5  7  2  0  0  0
  6  9  1  0  0  0
  7  8  1  0  0  0
 10 11  2  0  0  0
 10 12  1  0  0  0
 12 14  1  0  0  0
 12 13  1  0  0  0
 14 58  1  0  0  0
 14 15  1  0  0  0
 58 59  1  0  0  0
 59 60  1  0  0  0
 60 61  1  0  0  0
 61 62  1  0  0  0
 62 63  1  0  0  0
 62 64  1  0  0  0
 15 16  2  0  0  0
 15 17  1  0  0  0
 17 19  1  0  0  0
 17 18  1  0  0  0
 19 51  1  0  0  0
 19 20  1  0  0  0
 51 52  1  0  0  0
 52 53  1  0  0  0
 53 54  2  0  0  0
 53 55  1  0  0  0
 55 56  1  0  0  0
 55 57  1  0  0  0
 20 21  2  0  0  0
 20 22  1  0  0  0
 22 24  1  0  0  0
 22 23  1  0  0  0
 24 44  1  0  0  0
 24 25  1  0  0  0
 44 45  1  0  0  0
 45 49  1  0  0  0
 45 46  2  0  0  0
 46 47  1  0  0  0
 47 48  2  0  0  0
 48 49  1  0  0  0
 49 50  1  0  0  0
 25 26  2  0  0  0
 25 27  1  0  0  0
 27 29  1  0  0  0
 27 28  1  0  0  0
 29 41  1  0  0  0
 29 30  1  0  0  0
 41 42  1  0  0  0
 42 43  1  0  0  0
 30 31  2  0  0  0
 30 32  1  0  0  0
 32 36  1  0  0  0
 32 33  1  0  0  0
 33 34  1  0  0  0
 34 35  1  0  0  0
 35 36  1  0  0  0
 36 37  1  0  0  0
 37 38  1  0  0  0
 37 39  2  0  0  0
 38 40  1  0  0  0
 99100  1  0  0  0
 99101  1  0  0  0
100102  1  0  0  0
M  END
> <minimizedAffinity>
-8.29341

$$$$



126129  0  0  0  0  0  0  0  0999 V2000
   35.2842   13.8818   28.8626 C   0  0  0  0  0  0  0  0  0  0  0  0
   35.5580   13.2731   29.6072 C   0  0  0  0  0  0  0  0  0  0  0  0
   36.5156   13.2315   29.8925 C   0  0  0  0  0  0  0  0  0  0  0  0
   36.7894   12.6227   30.6372 C   0  0  0  0  0  0  0  0  0  0  0  0
   36.1058   12.0556   31.0964 C   0  0  0  0  0  0  0  0  0  0  0  0
   36.3796   11.4469   31.8410 O   0  0  0  0  0  0  0  0  0  0  0  0
   35.1482   12.0972   30.8111 C   0  0  0  0  0  0  0  0  0  0  0  0
   34.8744   12.7059   30.0665 C   0  0  0  0  0  0  0  0  0  0  0  0
   37.2768   11.4079   32.1084 H   0  0  0  0  0  0  0  0  0  0  0  0
   35.1220   13.5114   27.9480 C   0  0  0  0  0  0  0  0  0  0  0  0
   34.5861   12.6747   27.8352 O   0  0  0  0  0  0  0  0  0  0  0  0
   35.4957   13.9777   27.1462 N   0  0  0  0  0  0  0  0  0  0  0  0
   36.0233   14.8015   27.2573 H   0  0  0  0  0  0  0  0  0  0  0  0
   35.3336   13.6074   26.2315 C   0  0  0  0  0  0  0  0  0  0  0  0
   36.0429   13.0685   25.7773 C   0  0  0  0  0  0  0  0  0  0  0  0
   35.8052   12.2088   25.3253 O   0  0  0  0  0  0  0  0  0  0  0  0
   36.9901   13.3893   25.7751 N   0  0  0  0  0  0  0  0  0  0  0  0
   37.2241   14.2357   26.2202 H   0  0  0  0  0  0  0  0  0  0  0  0
   37.6995   12.8504   25.3209 C   0  0  0  0  0  0  0  0  0  0  0  0
   37.9704   13.0695   24.3836 C   0  0  0  0  0  0  0  0  0  0  0  0
   38.3044   13.9853   24.1607 O   0  0  0  0  0  0  0  0  0  0  0  0
   37.9074   12.3726   23.6690 N   0  0  0  0  0  0  0  0  0  0  0  0
   37.5786   11.4710   23.8884 H   0  0  0  0  0  0  0  0  0  0  0  0
   38.1784   12.5917   22.7317 C   0  0  0  0  0  0  0  0  0  0  0  0
   39.0671   12.2915   22.3851 C   0  0  0  0  0  0  0  0  0  0  0  0
   39.6466   12.9285   21.8768 O   0  0  0  0  0  0  0  0  0  0  0  0
   39.3762   11.3543   22.5467 N   0  0  0  0  0  0  0  0  0  0  0  0
   38.8056   10.7272   23.0471 H   0  0  0  0  0  0  0  0  0  0  0  0
   40.2648   11.0541   22.2000 C   0  0  0  0  0  0  0  0  0  0  0  0
   41.0385   10.9561   22.8259 C   0  0  0  0  0  0  0  0  0  0  0  0
   41.8615   11.5085   22.6939 O   0  0  0  0  0  0  0  0  0  0  0  0
   40.9891   10.3056   23.5839 N   0  0  0  0  0  0  0  0  0  0  0  0
   40.2143    9.7111   23.7987 C   0  0  0  0  0  0  0  0  0  0  0  0
   40.4523    9.1736   24.6077 C   0  0  0  0  0  0  0  0  0  0  0  0
   41.3741    9.4359   24.8928 C   0  0  0  0  0  0  0  0  0  0  0  0
   41.7059   10.1355   24.2601 C   0  0  0  0  0  0  0  0  0  0  0  0
   42.5979   10.5860   24.2971 C   0  0  0  0  0  0  0  0  0  0  0  0
   42.7223   11.4035   24.8594 O   0  0  0  0  0  0  0  0  0  0  0  0
   43.3656   10.2190   23.7717 O   0  0  0  0  0  0  0  0  0  0  0  0
   42.0030   11.7474   25.3517 H   0  0  0  0  0  0  0  0  0  0  0  0
   40.3798   10.8519   21.2274 C   0  0  0  0  0  0  0  0  0  0  0  0
   39.9199   10.0612   20.8233 S   0  0  0  0  0  0  0  0  0  0  0  0
   39.1381    9.2608   21.5964 H   0  0  0  0  0  0  0  0  0  0  0  0
   37.5608   13.1109   22.1410 C   0  0  0  0  0  0  0  0  0  0  0  0
   36.6923   12.7097   21.8499 C   0  0  0  0  0  0  0  0  0  0  0  0
   36.5702   12.0421   21.1154 C   0  0  0  0  0  0  0  0  0  0  0  0
   35.5959   11.8253   21.0537 N   0  0  0  0  0  0  0  0  0  0  0  0
   35.1159   12.3589   21.7500 C   0  0  0  0  0  0  0  0  0  0  0  0
   35.7936   12.9055   22.2421 N   0  0  0  0  0  0  0  0  0  0  0  0
   35.6083   13.5272   22.9826 H   0  0  0  0  0  0  0  0  0  0  0  0
   38.1379   12.0925   25.8039 C   0  0  0  0  0  0  0  0  0  0  0  0
   38.7433   12.2765   26.5782 C   0  0  0  0  0  0  0  0  0  0  0  0
   39.0174   11.5317   27.1866 C   0  0  0  0  0  0  0  0  0  0  0  0
   38.3326   10.8891   27.5303 O   0  0  0  0  0  0  0  0  0  0  0  0
   39.9763   11.4295   27.4513 N   0  0  0  0  0  0  0  0  0  0  0  0
   40.6505   12.0622   27.1129 H   0  0  0  0  0  0  0  0  0  0  0  0
   40.2462   10.6963   28.0503 H   0  0  0  0  0  0  0  0  0  0  0  0
   34.4620   13.7759   25.7712 C   0  0  0  0  0  0  0  0  0  0  0  0
   34.2579   14.6833   25.4037 C   0  0  0  0  0  0  0  0  0  0  0  0
   33.3710   14.8624   24.9777 C   0  0  0  0  0  0  0  0  0  0  0  0
   33.0754   15.8037   24.8152 C   0  0  0  0  0  0  0  0  0  0  0  0
   33.5200   16.3522   24.1070 N   0  0  0  0  0  0  0  0  0  0  0  0
   34.2752   15.9515   23.5506 H   0  0  0  0  0  0  0  0  0  0  0  0
   33.2185   17.3124   23.9412 H   0  0  0  0  0  0  0  0  0  0  0  0
   34.2561   15.2533   29.1114 C   0  0  0  0  0  0  0  0  0  0  0  0
   33.4513   14.6667   29.0202 O   0  0  0  0  0  0  0  0  0  0  0  0
   35.1725   14.8609   29.0326 N   0  0  0  0  0  0  0  0  0  0  0  0
   35.9647   15.4384   29.1224 H   0  0  0  0  0  0  0  0  0  0  0  0
   34.1444   16.2324   29.2814 C   0  0  0  0  0  0  0  0  0  0  0  0
   34.8386   17.5727   28.4319 C   0  0  0  0  0  0  0  0  0  0  0  0
   35.5661   17.6293   29.1156 O   0  0  0  0  0  0  0  0  0  0  0  0
   34.1277   16.8743   28.5148 N   0  0  0  0  0  0  0  0  0  0  0  0
   33.4114   16.8186   27.8416 H   0  0  0  0  0  0  0  0  0  0  0  0
   34.8219   18.2146   27.6653 C   0  0  0  0  0  0  0  0  0  0  0  0
   35.9841   18.5734   26.4322 C   0  0  0  0  0  0  0  0  0  0  0  0
   35.4615   18.0244   25.7799 O   0  0  0  0  0  0  0  0  0  0  0  0
   35.6643   18.6686   27.3748 N   0  0  0  0  0  0  0  0  0  0  0  0
   36.1787   19.2091   28.0170 H   0  0  0  0  0  0  0  0  0  0  0  0
   36.8264   19.0274   26.1417 C   0  0  0  0  0  0  0  0  0  0  0  0
   36.9092   20.0213   26.2137 C   0  0  0  0  0  0  0  0  0  0  0  0
   38.3932   18.9462   25.4078 C   0  0  0  0  0  0  0  0  0  0  0  0
   38.4407   19.9450   25.3988 O   0  0  0  0  0  0  0  0  0  0  0  0
   37.5860   18.4874   25.7792 N   0  0  0  0  0  0  0  0  0  0  0  0
   37.5392   17.5040   25.7881 H   0  0  0  0  0  0  0  0  0  0  0  0
   39.1528   18.4062   25.0453 C   0  0  0  0  0  0  0  0  0  0  0  0
   39.9514   17.2851   26.0966 C   0  0  0  0  0  0  0  0  0  0  0  0
   40.4621   18.0381   26.5116 O   0  0  0  0  0  0  0  0  0  0  0  0
   39.2968   17.4692   25.3635 N   0  0  0  0  0  0  0  0  0  0  0  0
   38.7940   16.7279   24.9549 H   0  0  0  0  0  0  0  0  0  0  0  0
   40.0953   16.3481   26.4148 C   0  0  0  0  0  0  0  0  0  0  0  0
   39.1655   15.8062   27.7719 C   0  0  0  0  0  0  0  0  0  0  0  0
   38.3684   15.6898   27.1794 O   0  0  0  0  0  0  0  0  0  0  0  0
   40.0289   16.1353   27.3897 N   0  0  0  0  0  0  0  0  0  0  0  0
   40.8137   16.2499   27.9730 H   0  0  0  0  0  0  0  0  0  0  0  0
   39.4675   14.7321   29.0968 N   0  0  0  0  0  0  0  0  0  0  0  0
   39.0991   15.5934   28.7468 C   0  0  0  0  0  0  0  0  0  0  0  0
   39.3998   14.5150   30.0911 H   0  0  0  0  0  0  0  0  0  0  0  0
   39.9109   14.0706   28.4594 H   0  0  0  0  0  0  0  0  0  0  0  0
   38.6645   16.2419   29.3717 C   0  0  0  0  0  0  0  0  0  0  0  0
   38.2310   17.0685   29.0126 O   0  0  0  0  0  0  0  0  0  0  0  0
   38.6632   16.0639   30.3557 C   0  0  0  0  0  0  0  0  0  0  0  0
   38.2322   17.2411   28.0580 H   0  0  0  0  0  0  0  0  0  0  0  0
   40.3057   15.6238   25.7582 C   0  0  0  0  0  0  0  0  0  0  0  0
   41.2544   15.3462   25.6070 C   0  0  0  0  0  0  0  0  0  0  0  0
   41.4605   14.4174   25.2987 C   0  0  0  0  0  0  0  0  0  0  0  0
   41.6967   13.7103   25.9651 O   0  0  0  0  0  0  0  0  0  0  0  0
   41.4304   14.1958   24.3240 N   0  0  0  0  0  0  0  0  0  0  0  0
   41.1978   14.8920   23.6680 H   0  0  0  0  0  0  0  0  0  0  0  0
   41.6333   13.2816   24.0206 H   0  0  0  0  0  0  0  0  0  0  0  0
   39.7685   18.8033   24.3646 C   0  0  0  0  0  0  0  0  0  0  0  0
   39.5755   18.6907   23.3899 C   0  0  0  0  0  0  0  0  0  0  0  0
   40.1092   19.1974   22.7128 C   0  0  0  0  0  0  0  0  0  0  0  0
   40.8100   18.7280   22.1756 O   0  0  0  0  0  0  0  0  0  0  0  0
   39.9422   20.1734   22.5730 N   0  0  0  0  0  0  0  0  0  0  0  0
   39.2523   20.6355   23.1019 H   0  0  0  0  0  0  0  0  0  0  0  0
   40.4676   20.6722   21.9063 H   0  0  0  0  0  0  0  0  0  0  0  0
   33.9629   18.4026   27.1891 C   0  0  0  0  0  0  0  0  0  0  0  0
   33.3033   19.0433   27.5820 O   0  0  0  0  0  0  0  0  0  0  0  0
   32.4700   19.2256   27.1201 H   0  0  0  0  0  0  0  0  0  0  0  0
   34.0493   16.5696   30.2181 C   0  0  0  0  0  0  0  0  0  0  0  0
   33.1798   16.9571   30.5242 C   0  0  0  0  0  0  0  0  0  0  0  0
   32.9998   17.3616   31.4208 C   0  0  0  0  0  0  0  0  0  0  0  0
   32.0463   17.6627   31.4382 N   0  0  0  0  0  0  0  0  0  0  0  0
   31.6370   17.4442   30.5523 C   0  0  0  0  0  0  0  0  0  0  0  0
   32.3377   17.0081   29.9874 N   0  0  0  0  0  0  0  0  0  0  0  0
   32.2190   16.6856   29.0648 H   0  0  0  0  0  0  0  0  0  0  0  0
 95 96  1  0  0  0
 95 97  1  0  0  0
 95 98  1  0  0  0
 96 91  1  0  0  0
 96 99  1  0  0  0
 91 92  2  0  0  0
 91 93  1  0  0  0
 93 90  1  0  0  0
 93 94  1  0  0  0
 90103  1  0  0  0
 90 86  1  0  0  0
103104  1  0  0  0
104105  1  0  0  0
105106  2  0  0  0
105107  1  0  0  0
107108  1  0  0  0
107109  1  0  0  0
 86 87  2  0  0  0
 86 88  1  0  0  0
 88 85  1  0  0  0
 88 89  1  0  0  0
 85110  1  0  0  0
 85 81  1  0  0  0
110111  1  0  0  0
111112  1  0  0  0
112113  2  0  0  0
112114  1  0  0  0
114115  1  0  0  0
114116  1  0  0  0
 81 82  2  0  0  0
 81 83  1  0  0  0
 83 79  1  0  0  0
 83 84  1  0  0  0
 79 80  1  0  0  0
 79 75  1  0  0  0
 75 76  2  0  0  0
 75 77  1  0  0  0
 77 74  1  0  0  0
 77 78  1  0  0  0
 74117  1  0  0  0
 74 70  1  0  0  0
117118  1  0  0  0
118119  1  0  0  0
 70 71  2  0  0  0
 70 72  1  0  0  0
 72 69  1  0  0  0
 72 73  1  0  0  0
 69120  1  0  0  0
 69 65  1  0  0  0
120121  1  0  0  0
121125  1  0  0  0
121122  2  0  0  0
122123  1  0  0  0
123124  2  0  0  0
124125  1  0  0  0
125126  1  0  0  0
 65 66  2  0  0  0
 65 67  1  0  0  0
 67  1  1  0  0  0
 67 68  1  0  0  0
  1  2  1  0  0  0
  1 10  1  0  0  0
  2  8  2  0  0  0
  2  3  1  0  0  0
  3  4  2  0  0  0
  4  5  1  0  0  0
  5  6  1  0  0  0
  5  7  2  0  0  0
  6  9  1  0  0  0
  7  8  1  0  0  0
 10 11  2  0  0  0
 10 12  1  0  0  0
 12 14  1  0  0  0
 12 13  1  0  0  0
 14 58  1  0  0  0
 14 15  1  0  0  0
 58 59  1  0  0  0
 59 60  1  0  0  0
 60 61  1  0  0  0
 61 62  1  0  0  0
 62 63  1  0  0  0
 62 64  1  0  0  0
 15 16  2  0  0  0
 15 17  1  0  0  0
 17 19  1  0  0  0
 17 18  1  0  0  0
 19 51  1  0  0  0
 19 20  1  0  0  0
 51 52  1  0  0  0
 52 53  1  0  0  0
 53 54  2  0  0  0
 53 55  1  0  0  0
 55 56  1  0  0  0
 55 57  1  0  0  0
 20 21  2  0  0  0
 20 22  1  0  0  0
 22 24  1  0  0  0
 22 23  1  0  0  0
 24 44  1  0  0  0
 24 25  1  0  0  0
 44 45  1  0  0  0
 45 49  1  0  0  0
 45 46  2  0  0  0
 46 47  1  0  0  0
 47 48  2  0  0  0
 48 49  1  0  0  0
 49 50  1  0  0  0
 25 26  2  0  0  0
 25 27  1  0  0  0
 27 29  1  0  0  0
 27 28  1  0  0  0
 29 41  1  0  0  0
 29 30  1  0  0  0
 41 42  1  0  0  0
 42 43  1  0  0  0
 30 31  2  0  0  0
 30 32  1  0  0  0
 32 36  1  0  0  0
 32 33  1  0  0  0
 33 34  1  0  0  0
 34 35  1  0  0  0
 35 36  1  0  0  0
 36 37  1  0  0  0
 37 38  1  0  0  0
 37 39  2  0  0  0
 38 40  1  0  0  0
 99100  1  0  0  0
 99101  1  0  0  0
100102  1  0  0  0
M  END
> <minimizedAffinity>
-8.25041

$$$$



126129  0  0  0  0  0  0  0  0999 V2000
   35.5307   12.1917   28.0754 C   0  0  0  0  0  0  0  0  0  0  0  0
   34.7608   12.4163   28.6726 C   0  0  0  0  0  0  0  0  0  0  0  0
   34.9159   12.9293   29.5169 C   0  0  0  0  0  0  0  0  0  0  0  0
   34.1459   13.1539   30.1142 C   0  0  0  0  0  0  0  0  0  0  0  0
   33.2208   12.8656   29.8671 C   0  0  0  0  0  0  0  0  0  0  0  0
   32.4509   13.0902   30.4643 O   0  0  0  0  0  0  0  0  0  0  0  0
   33.0656   12.3527   29.0228 C   0  0  0  0  0  0  0  0  0  0  0  0
   33.8356   12.1280   28.4256 C   0  0  0  0  0  0  0  0  0  0  0  0
   32.5962   13.5709   31.2554 H   0  0  0  0  0  0  0  0  0  0  0  0
   36.1693   11.4670   28.3341 C   0  0  0  0  0  0  0  0  0  0  0  0
   37.1546   11.6365   28.3094 O   0  0  0  0  0  0  0  0  0  0  0  0
   35.8227   10.5729   28.6176 N   0  0  0  0  0  0  0  0  0  0  0  0
   34.8528   10.4061   28.6420 H   0  0  0  0  0  0  0  0  0  0  0  0
   36.4614    9.8481   28.8764 C   0  0  0  0  0  0  0  0  0  0  0  0
   36.5995    9.6244   29.8412 C   0  0  0  0  0  0  0  0  0  0  0  0
   35.9456    9.0358   30.3165 O   0  0  0  0  0  0  0  0  0  0  0  0
   37.3915    9.9893   30.3307 N   0  0  0  0  0  0  0  0  0  0  0  0
   38.0352   10.5687   29.8627 H   0  0  0  0  0  0  0  0  0  0  0  0
   37.5296    9.7655   31.2955 C   0  0  0  0  0  0  0  0  0  0  0  0
   38.2088    9.0799   31.5574 C   0  0  0  0  0  0  0  0  0  0  0  0
   37.9355    8.2890   32.1049 O   0  0  0  0  0  0  0  0  0  0  0  0
   39.1615    9.1853   31.2720 N   0  0  0  0  0  0  0  0  0  0  0  0
   39.4306    9.9640   30.7330 H   0  0  0  0  0  0  0  0  0  0  0  0
   39.8407    8.4997   31.5340 C   0  0  0  0  0  0  0  0  0  0  0  0
   40.1107    7.7896   30.8838 C   0  0  0  0  0  0  0  0  0  0  0  0
   40.3967    8.0409   29.9591 O   0  0  0  0  0  0  0  0  0  0  0  0
   40.0949    6.8281   31.1583 N   0  0  0  0  0  0  0  0  0  0  0  0
   39.8134    6.5808   32.0687 H   0  0  0  0  0  0  0  0  0  0  0  0
   40.3649    6.1180   30.5082 C   0  0  0  0  0  0  0  0  0  0  0  0
   41.2763    5.7101   30.5632 C   0  0  0  0  0  0  0  0  0  0  0  0
   41.9550    5.9052   29.8552 O   0  0  0  0  0  0  0  0  0  0  0  0
   41.5090    5.1071   31.3263 N   0  0  0  0  0  0  0  0  0  0  0  0
   40.9030    4.8521   32.0798 C   0  0  0  0  0  0  0  0  0  0  0  0
   41.4080    4.2406   32.6890 C   0  0  0  0  0  0  0  0  0  0  0  0
   42.3260    4.1178   32.3120 C   0  0  0  0  0  0  0  0  0  0  0  0
   42.3884    4.6533   31.4698 C   0  0  0  0  0  0  0  0  0  0  0  0
   43.1896    4.7228   30.8755 C   0  0  0  0  0  0  0  0  0  0  0  0
   43.8831    5.4217   31.0507 O   0  0  0  0  0  0  0  0  0  0  0  0
   43.2974    4.0934   30.1059 O   0  0  0  0  0  0  0  0  0  0  0  0
   43.7821    6.0114   31.7718 H   0  0  0  0  0  0  0  0  0  0  0  0
   39.7236    5.8156   29.8029 C   0  0  0  0  0  0  0  0  0  0  0  0
   38.8596    5.3853   30.0641 S   0  0  0  0  0  0  0  0  0  0  0  0
   38.5566    5.2111   31.3784 H   0  0  0  0  0  0  0  0  0  0  0  0
   40.2498    8.5243   32.4461 C   0  0  0  0  0  0  0  0  0  0  0  0
   40.9388    9.2147   32.6666 C   0  0  0  0  0  0  0  0  0  0  0  0
   40.8062   10.0091   33.2594 C   0  0  0  0  0  0  0  0  0  0  0  0
   41.6668   10.5173   33.2922 N   0  0  0  0  0  0  0  0  0  0  0  0
   42.3314   10.0370   32.7197 C   0  0  0  0  0  0  0  0  0  0  0  0
   41.8814    9.2319   32.3331 N   0  0  0  0  0  0  0  0  0  0  0  0
   42.2940    8.5722   31.7300 H   0  0  0  0  0  0  0  0  0  0  0  0
   36.9885   10.2273   31.9983 C   0  0  0  0  0  0  0  0  0  0  0  0
   37.2193   11.1604   32.2742 C   0  0  0  0  0  0  0  0  0  0  0  0
   36.7375   11.5894   33.0383 C   0  0  0  0  0  0  0  0  0  0  0  0
   35.8630   12.0491   32.8832 O   0  0  0  0  0  0  0  0  0  0  0  0
   37.1302   11.5588   33.9574 N   0  0  0  0  0  0  0  0  0  0  0  0
   37.9912   11.1063   34.1100 H   0  0  0  0  0  0  0  0  0  0  0  0
   36.6560   11.9812   34.7097 H   0  0  0  0  0  0  0  0  0  0  0  0
   36.9619    9.3472   28.1703 C   0  0  0  0  0  0  0  0  0  0  0  0
   36.5391    8.5601   27.7209 C   0  0  0  0  0  0  0  0  0  0  0  0
   37.0211    8.0870   26.9835 C   0  0  0  0  0  0  0  0  0  0  0  0
   37.0189    7.0877   26.9452 C   0  0  0  0  0  0  0  0  0  0  0  0
   36.9940    6.6213   26.0610 N   0  0  0  0  0  0  0  0  0  0  0  0
   36.9709    7.1649   25.1981 H   0  0  0  0  0  0  0  0  0  0  0  0
   36.9917    5.6021   26.0219 H   0  0  0  0  0  0  0  0  0  0  0  0
   35.4227   12.2631   26.3482 C   0  0  0  0  0  0  0  0  0  0  0  0
   35.0521   11.3344   26.3329 O   0  0  0  0  0  0  0  0  0  0  0  0
   35.6620   12.6917   27.2194 N   0  0  0  0  0  0  0  0  0  0  0  0
   36.0269   13.6060   27.2344 H   0  0  0  0  0  0  0  0  0  0  0  0
   35.5540   12.7632   25.4922 C   0  0  0  0  0  0  0  0  0  0  0  0
   34.3381   13.8521   24.9127 C   0  0  0  0  0  0  0  0  0  0  0  0
   33.8331   13.0814   24.5241 O   0  0  0  0  0  0  0  0  0  0  0  0
   35.1986   13.6930   25.3967 N   0  0  0  0  0  0  0  0  0  0  0  0
   35.6958   14.4517   25.7793 H   0  0  0  0  0  0  0  0  0  0  0  0
   33.9827   14.7819   24.8172 C   0  0  0  0  0  0  0  0  0  0  0  0
   32.8052   15.6080   25.7821 C   0  0  0  0  0  0  0  0  0  0  0  0
   32.0952   15.3701   25.1192 O   0  0  0  0  0  0  0  0  0  0  0  0
   33.7489   15.3138   25.6310 N   0  0  0  0  0  0  0  0  0  0  0  0
   34.4479   15.5480   26.2835 H   0  0  0  0  0  0  0  0  0  0  0  0
   32.5714   16.1399   26.5959 C   0  0  0  0  0  0  0  0  0  0  0  0
   31.7341   16.6864   26.6125 C   0  0  0  0  0  0  0  0  0  0  0  0
   33.6184   16.9675   27.6999 C   0  0  0  0  0  0  0  0  0  0  0  0
   33.4584   17.8242   27.2094 O   0  0  0  0  0  0  0  0  0  0  0  0
   33.1749   16.1254   27.3931 N   0  0  0  0  0  0  0  0  0  0  0  0
   33.3324   15.2820   27.8760 H   0  0  0  0  0  0  0  0  0  0  0  0
   34.2219   16.9531   28.4971 C   0  0  0  0  0  0  0  0  0  0  0  0
   35.8939   16.6682   28.1459 C   0  0  0  0  0  0  0  0  0  0  0  0
   35.6891   15.7094   27.9489 O   0  0  0  0  0  0  0  0  0  0  0  0
   35.1603   17.2900   28.4200 N   0  0  0  0  0  0  0  0  0  0  0  0
   35.3619   18.2339   28.6140 H   0  0  0  0  0  0  0  0  0  0  0  0
   36.8323   17.0051   28.0688 C   0  0  0  0  0  0  0  0  0  0  0  0
   37.9340   16.4934   29.3034 C   0  0  0  0  0  0  0  0  0  0  0  0
   37.5090   17.1303   29.9467 O   0  0  0  0  0  0  0  0  0  0  0  0
   37.5956   16.4308   28.3645 N   0  0  0  0  0  0  0  0  0  0  0  0
   38.0140   15.8038   27.7312 H   0  0  0  0  0  0  0  0  0  0  0  0
   39.6372   16.2454   29.4976 N   0  0  0  0  0  0  0  0  0  0  0  0
   38.6974   15.9191   29.5991 C   0  0  0  0  0  0  0  0  0  0  0  0
   40.4158   15.6597   29.7992 H   0  0  0  0  0  0  0  0  0  0  0  0
   39.8171   17.1641   29.0925 H   0  0  0  0  0  0  0  0  0  0  0  0
   38.5210   15.0185   29.9963 C   0  0  0  0  0  0  0  0  0  0  0  0
   38.1353   14.2894   29.4308 O   0  0  0  0  0  0  0  0  0  0  0  0
   38.7302   14.8469   30.9590 C   0  0  0  0  0  0  0  0  0  0  0  0
   37.9324   14.4559   28.4969 H   0  0  0  0  0  0  0  0  0  0  0  0
   37.0073   17.9164   27.6960 C   0  0  0  0  0  0  0  0  0  0  0  0
   37.4133   18.0153   26.7875 C   0  0  0  0  0  0  0  0  0  0  0  0
   37.4863   18.9204   26.3683 C   0  0  0  0  0  0  0  0  0  0  0  0
   37.7919   19.7008   26.9137 O   0  0  0  0  0  0  0  0  0  0  0  0
   37.2537   19.0448   25.4037 N   0  0  0  0  0  0  0  0  0  0  0  0
   36.9528   18.2764   24.8669 H   0  0  0  0  0  0  0  0  0  0  0  0
   37.3255   19.9358   24.9911 H   0  0  0  0  0  0  0  0  0  0  0  0
   33.8871   16.6017   29.3714 C   0  0  0  0  0  0  0  0  0  0  0  0
   33.6190   17.2367   30.0958 C   0  0  0  0  0  0  0  0  0  0  0  0
   33.1784   16.8924   30.9248 C   0  0  0  0  0  0  0  0  0  0  0  0
   32.9291   15.9264   30.9942 O   0  0  0  0  0  0  0  0  0  0  0  0
   32.9869   17.5140   31.6845 N   0  0  0  0  0  0  0  0  0  0  0  0
   33.2323   18.4649   31.6162 H   0  0  0  0  0  0  0  0  0  0  0  0
   32.5530   17.1749   32.5006 H   0  0  0  0  0  0  0  0  0  0  0  0
   33.8610   15.1797   23.9078 C   0  0  0  0  0  0  0  0  0  0  0  0
   34.6271   15.6358   23.4550 O   0  0  0  0  0  0  0  0  0  0  0  0
   34.5091   16.0217   22.5729 H   0  0  0  0  0  0  0  0  0  0  0  0
   36.0408   12.3334   24.7317 C   0  0  0  0  0  0  0  0  0  0  0  0
   37.0241   12.4783   24.6216 C   0  0  0  0  0  0  0  0  0  0  0  0
   37.4549   13.1843   24.0596 C   0  0  0  0  0  0  0  0  0  0  0  0
   38.4464   13.0850   24.1449 N   0  0  0  0  0  0  0  0  0  0  0  0
   38.6282   12.3175   24.7598 C   0  0  0  0  0  0  0  0  0  0  0  0
   37.7492   11.9426   25.0544 N   0  0  0  0  0  0  0  0  0  0  0  0
   37.6203   11.1800   25.6635 H   0  0  0  0  0  0  0  0  0  0  0  0
 95 96  1  0  0  0
 95 97  1  0  0  0
 95 98  1  0  0  0
 96 91  1  0  0  0
 96 99  1  0  0  0
 91 92  2  0  0  0
 91 93  1  0  0  0
 93 90  1  0  0  0
 93 94  1  0  0  0
 90103  1  0  0  0
 90 86  1  0  0  0
103104  1  0  0  0
104105  1  0  0  0
105106  2  0  0  0
105107  1  0  0  0
107108  1  0  0  0
107109  1  0  0  0
 86 87  2  0  0  0
 86 88  1  0  0  0
 88 85  1  0  0  0
 88 89  1  0  0  0
 85110  1  0  0  0
 85 81  1  0  0  0
110111  1  0  0  0
111112  1  0  0  0
112113  2  0  0  0
112114  1  0  0  0
114115  1  0  0  0
114116  1  0  0  0
 81 82  2  0  0  0
 81 83  1  0  0  0
 83 79  1  0  0  0
 83 84  1  0  0  0
 79 80  1  0  0  0
 79 75  1  0  0  0
 75 76  2  0  0  0
 75 77  1  0  0  0
 77 74  1  0  0  0
 77 78  1  0  0  0
 74117  1  0  0  0
 74 70  1  0  0  0
117118  1  0  0  0
118119  1  0  0  0
 70 71  2  0  0  0
 70 72  1  0  0  0
 72 69  1  0  0  0
 72 73  1  0  0  0
 69120  1  0  0  0
 69 65  1  0  0  0
120121  1  0  0  0
121125  1  0  0  0
121122  2  0  0  0
122123  1  0  0  0
123124  2  0  0  0
124125  1  0  0  0
125126  1  0  0  0
 65 66  2  0  0  0
 65 67  1  0  0  0
 67  1  1  0  0  0
 67 68  1  0  0  0
  1  2  1  0  0  0
  1 10  1  0  0  0
  2  8  2  0  0  0
  2  3  1  0  0  0
  3  4  2  0  0  0
  4  5  1  0  0  0
  5  6  1  0  0  0
  5  7  2  0  0  0
  6  9  1  0  0  0
  7  8  1  0  0  0
 10 11  2  0  0  0
 10 12  1  0  0  0
 12 14  1  0  0  0
 12 13  1  0  0  0
 14 58  1  0  0  0
 14 15  1  0  0  0
 58 59  1  0  0  0
 59 60  1  0  0  0
 60 61  1  0  0  0
 61 62  1  0  0  0
 62 63  1  0  0  0
 62 64  1  0  0  0
 15 16  2  0  0  0
 15 17  1  0  0  0
 17 19  1  0  0  0
 17 18  1  0  0  0
 19 51  1  0  0  0
 19 20  1  0  0  0
 51 52  1  0  0  0
 52 53  1  0  0  0
 53 54  2  0  0  0
 53 55  1  0  0  0
 55 56  1  0  0  0
 55 57  1  0  0  0
 20 21  2  0  0  0
 20 22  1  0  0  0
 22 24  1  0  0  0
 22 23  1  0  0  0
 24 44  1  0  0  0
 24 25  1  0  0  0
 44 45  1  0  0  0
 45 49  1  0  0  0
 45 46  2  0  0  0
 46 47  1  0  0  0
 47 48  2  0  0  0
 48 49  1  0  0  0
 49 50  1  0  0  0
 25 26  2  0  0  0
 25 27  1  0  0  0
 27 29  1  0  0  0
 27 28  1  0  0  0
 29 41  1  0  0  0
 29 30  1  0  0  0
 41 42  1  0  0  0
 42 43  1  0  0  0
 30 31  2  0  0  0
 30 32  1  0  0  0
 32 36  1  0  0  0
 32 33  1  0  0  0
 33 34  1  0  0  0
 34 35  1  0  0  0
 35 36  1  0  0  0
 36 37  1  0  0  0
 37 38  1  0  0  0
 37 39  2  0  0  0
 38 40  1  0  0  0
 99100  1  0  0  0
 99101  1  0  0  0
100102  1  0  0  0
M  END
> <minimizedAffinity>
-8.22554

$$$$



126129  0  0  0  0  0  0  0  0999 V2000
   43.2199   16.1746   26.0346 C   0  0  0  0  0  0  0  0  0  0  0  0
   43.9203   16.8855   26.0985 C   0  0  0  0  0  0  0  0  0  0  0  0
   44.8668   16.6784   25.8512 C   0  0  0  0  0  0  0  0  0  0  0  0
   45.5673   17.3893   25.9151 C   0  0  0  0  0  0  0  0  0  0  0  0
   45.3212   18.3072   26.2263 C   0  0  0  0  0  0  0  0  0  0  0  0
   46.0216   19.0180   26.2902 O   0  0  0  0  0  0  0  0  0  0  0  0
   44.3746   18.5143   26.4736 C   0  0  0  0  0  0  0  0  0  0  0  0
   43.6742   17.8035   26.4097 C   0  0  0  0  0  0  0  0  0  0  0  0
   46.9085   18.8240   26.0585 H   0  0  0  0  0  0  0  0  0  0  0  0
   42.8978   15.7143   26.8618 C   0  0  0  0  0  0  0  0  0  0  0  0
   42.7440   14.7262   26.8565 O   0  0  0  0  0  0  0  0  0  0  0  0
   42.7294   16.2421   27.6943 N   0  0  0  0  0  0  0  0  0  0  0  0
   42.8808   17.2149   27.6995 H   0  0  0  0  0  0  0  0  0  0  0  0
   42.4073   15.7818   28.5217 C   0  0  0  0  0  0  0  0  0  0  0  0
   41.5119   16.0094   28.9041 C   0  0  0  0  0  0  0  0  0  0  0  0
   41.3390   16.9279   29.2598 O   0  0  0  0  0  0  0  0  0  0  0  0
   40.7893   15.3187   28.9308 N   0  0  0  0  0  0  0  0  0  0  0  0
   40.9595   14.4145   28.5806 H   0  0  0  0  0  0  0  0  0  0  0  0
   39.8938   15.5464   29.3133 C   0  0  0  0  0  0  0  0  0  0  0  0
   39.1219   15.7289   28.7044 C   0  0  0  0  0  0  0  0  0  0  0  0
   38.8595   15.0550   28.0138 O   0  0  0  0  0  0  0  0  0  0  0  0
   38.6122   16.5855   28.7861 N   0  0  0  0  0  0  0  0  0  0  0  0
   38.8704   17.2489   29.4661 H   0  0  0  0  0  0  0  0  0  0  0  0
   37.8402   16.7680   28.1773 C   0  0  0  0  0  0  0  0  0  0  0  0
   36.9038   16.6786   28.5165 C   0  0  0  0  0  0  0  0  0  0  0  0
   36.6246   17.1611   29.3467 O   0  0  0  0  0  0  0  0  0  0  0  0
   36.2466   16.1067   28.0256 N   0  0  0  0  0  0  0  0  0  0  0  0
   36.5215   15.6317   27.2083 H   0  0  0  0  0  0  0  0  0  0  0  0
   35.3102   16.0173   28.3649 C   0  0  0  0  0  0  0  0  0  0  0  0
   34.5915   16.6171   28.0131 C   0  0  0  0  0  0  0  0  0  0  0  0
   34.1398   17.2676   28.6237 O   0  0  0  0  0  0  0  0  0  0  0  0
   34.3246   16.5663   27.0507 N   0  0  0  0  0  0  0  0  0  0  0  0
   34.7144   15.9525   26.3642 C   0  0  0  0  0  0  0  0  0  0  0  0
   34.2517   16.1274   25.4951 C   0  0  0  0  0  0  0  0  0  0  0  0
   33.5759   16.8492   25.6445 C   0  0  0  0  0  0  0  0  0  0  0  0
   33.6210   17.1205   26.6059 C   0  0  0  0  0  0  0  0  0  0  0  0
   33.0608   17.8227   27.0454 C   0  0  0  0  0  0  0  0  0  0  0  0
   33.3909   18.7652   27.0980 O   0  0  0  0  0  0  0  0  0  0  0  0
   32.1705   17.5824   27.4322 O   0  0  0  0  0  0  0  0  0  0  0  0
   34.2251   18.9903   26.7355 H   0  0  0  0  0  0  0  0  0  0  0  0
   35.0924   15.3281   29.0561 C   0  0  0  0  0  0  0  0  0  0  0  0
   35.1843   14.3562   28.8393 S   0  0  0  0  0  0  0  0  0  0  0  0
   35.6053   13.9717   27.6047 H   0  0  0  0  0  0  0  0  0  0  0  0
   38.0047   17.0399   27.2291 C   0  0  0  0  0  0  0  0  0  0  0  0
   38.3174   17.9669   27.0219 C   0  0  0  0  0  0  0  0  0  0  0  0
   37.7459   18.7222   26.7011 C   0  0  0  0  0  0  0  0  0  0  0  0
   38.3318   19.5234   26.5800 N   0  0  0  0  0  0  0  0  0  0  0  0
   39.2656   19.2633   26.8259 C   0  0  0  0  0  0  0  0  0  0  0  0
   39.2567   18.3013   27.0991 N   0  0  0  0  0  0  0  0  0  0  0  0
   40.0358   17.7759   27.3924 H   0  0  0  0  0  0  0  0  0  0  0  0
   39.7703   15.5915   30.3046 C   0  0  0  0  0  0  0  0  0  0  0  0
   39.6153   14.7535   30.8278 C   0  0  0  0  0  0  0  0  0  0  0  0
   39.8714   14.7125   31.7936 C   0  0  0  0  0  0  0  0  0  0  0  0
   39.6850   13.8865   32.3256 O   0  0  0  0  0  0  0  0  0  0  0  0
   40.3138   15.4974   32.2273 N   0  0  0  0  0  0  0  0  0  0  0  0
   40.4973   16.3106   31.7035 H   0  0  0  0  0  0  0  0  0  0  0  0
   40.5659   15.4570   33.1781 H   0  0  0  0  0  0  0  0  0  0  0  0
   42.9807   15.0938   28.9665 C   0  0  0  0  0  0  0  0  0  0  0  0
   43.5897   15.3581   29.7144 C   0  0  0  0  0  0  0  0  0  0  0  0
   44.0191   14.6554   30.2817 C   0  0  0  0  0  0  0  0  0  0  0  0
   43.6009   14.3894   31.1502 C   0  0  0  0  0  0  0  0  0  0  0  0
   43.6700   14.9935   31.9441 N   0  0  0  0  0  0  0  0  0  0  0  0
   44.1671   15.8809   31.8681 H   0  0  0  0  0  0  0  0  0  0  0  0
   43.2433   14.7222   32.8300 H   0  0  0  0  0  0  0  0  0  0  0  0
   41.9547   16.2868   24.8569 C   0  0  0  0  0  0  0  0  0  0  0  0
   41.4462   16.8999   25.4615 O   0  0  0  0  0  0  0  0  0  0  0  0
   42.8415   15.9241   25.1434 N   0  0  0  0  0  0  0  0  0  0  0  0
   43.3421   15.3205   24.5483 H   0  0  0  0  0  0  0  0  0  0  0  0
   41.5764   16.0363   23.9658 C   0  0  0  0  0  0  0  0  0  0  0  0
   40.6639   14.5928   23.6765 C   0  0  0  0  0  0  0  0  0  0  0  0
   39.8252   15.0706   23.9379 O   0  0  0  0  0  0  0  0  0  0  0  0
   41.5395   15.0757   23.6904 N   0  0  0  0  0  0  0  0  0  0  0  0
   42.3652   14.6053   23.4330 H   0  0  0  0  0  0  0  0  0  0  0  0
   40.6270   13.6322   23.4011 C   0  0  0  0  0  0  0  0  0  0  0  0
   40.4152   12.2733   24.4539 C   0  0  0  0  0  0  0  0  0  0  0  0
   41.4076   12.1860   24.5408 O   0  0  0  0  0  0  0  0  0  0  0  0
   40.0249   12.9964   23.8841 N   0  0  0  0  0  0  0  0  0  0  0  0
   39.0479   13.0823   23.7985 H   0  0  0  0  0  0  0  0  0  0  0  0
   39.8132   11.6375   24.9369 C   0  0  0  0  0  0  0  0  0  0  0  0
   40.1965   10.9841   25.5898 C   0  0  0  0  0  0  0  0  0  0  0  0
   38.1994   11.9222   25.4975 C   0  0  0  0  0  0  0  0  0  0  0  0
   38.5561   12.1718   26.3977 O   0  0  0  0  0  0  0  0  0  0  0  0
   38.8279   11.6550   24.7671 N   0  0  0  0  0  0  0  0  0  0  0  0
   38.4767   11.4092   23.8808 H   0  0  0  0  0  0  0  0  0  0  0  0
   37.2140   11.9397   25.3277 C   0  0  0  0  0  0  0  0  0  0  0  0
   36.6211   12.9009   24.0144 C   0  0  0  0  0  0  0  0  0  0  0  0
   36.7179   13.7244   24.5734 O   0  0  0  0  0  0  0  0  0  0  0  0
   36.8691   12.0086   24.3916 N   0  0  0  0  0  0  0  0  0  0  0  0
   36.7738   11.1979   23.8413 H   0  0  0  0  0  0  0  0  0  0  0  0
   36.2762   12.9698   23.0783 C   0  0  0  0  0  0  0  0  0  0  0  0
   37.3631   12.4845   21.8201 C   0  0  0  0  0  0  0  0  0  0  0  0
   37.8791   13.3329   21.9386 O   0  0  0  0  0  0  0  0  0  0  0  0
   36.5617   12.3029   22.3900 N   0  0  0  0  0  0  0  0  0  0  0  0
   36.0537   11.4677   22.2734 H   0  0  0  0  0  0  0  0  0  0  0  0
   38.4399   11.2305   21.3024 N   0  0  0  0  0  0  0  0  0  0  0  0
   37.6486   11.8176   21.1317 C   0  0  0  0  0  0  0  0  0  0  0  0
   38.7311   10.5503   20.6003 H   0  0  0  0  0  0  0  0  0  0  0  0
   38.9559   11.3118   22.1785 H   0  0  0  0  0  0  0  0  0  0  0  0
   37.1428   11.7379   20.2728 C   0  0  0  0  0  0  0  0  0  0  0  0
   37.0939   12.5164   19.6472 O   0  0  0  0  0  0  0  0  0  0  0  0
   36.6858   10.8795   20.0395 C   0  0  0  0  0  0  0  0  0  0  0  0
   37.5372   13.3491   19.8735 H   0  0  0  0  0  0  0  0  0  0  0  0
   35.6459   13.7054   22.8305 C   0  0  0  0  0  0  0  0  0  0  0  0
   34.6633   13.5265   22.7812 C   0  0  0  0  0  0  0  0  0  0  0  0
   34.0675   14.1446   22.2682 C   0  0  0  0  0  0  0  0  0  0  0  0
   34.2990   14.3968   21.3286 O   0  0  0  0  0  0  0  0  0  0  0  0
   33.2404   14.5104   22.6948 N   0  0  0  0  0  0  0  0  0  0  0  0
   33.0126   14.2621   23.6198 H   0  0  0  0  0  0  0  0  0  0  0  0
   32.6540   15.1189   22.1897 H   0  0  0  0  0  0  0  0  0  0  0  0
   36.5735   11.8884   26.0940 C   0  0  0  0  0  0  0  0  0  0  0  0
   36.0641   11.0450   26.2642 C   0  0  0  0  0  0  0  0  0  0  0  0
   35.3709   11.0163   26.9843 C   0  0  0  0  0  0  0  0  0  0  0  0
   35.6268   10.7534   27.9146 O   0  0  0  0  0  0  0  0  0  0  0  0
   34.4216   11.2504   26.7741 N   0  0  0  0  0  0  0  0  0  0  0  0
   34.1696   11.5092   25.8582 H   0  0  0  0  0  0  0  0  0  0  0  0
   33.7391   11.2222   27.4831 H   0  0  0  0  0  0  0  0  0  0  0  0
   41.1921   13.3074   22.6427 C   0  0  0  0  0  0  0  0  0  0  0  0
   40.8539   13.3719   21.7038 O   0  0  0  0  0  0  0  0  0  0  0  0
   41.4022   13.0568   20.9682 H   0  0  0  0  0  0  0  0  0  0  0  0
   41.2350   16.7465   23.3500 C   0  0  0  0  0  0  0  0  0  0  0  0
   41.8119   17.0824   22.6055 C   0  0  0  0  0  0  0  0  0  0  0  0
   42.1930   18.0036   22.5270 C   0  0  0  0  0  0  0  0  0  0  0  0
   42.7257   18.0467   21.6818 N   0  0  0  0  0  0  0  0  0  0  0  0
   42.6738   17.1520   21.2379 C   0  0  0  0  0  0  0  0  0  0  0  0
   42.1090   16.5562   21.8088 N   0  0  0  0  0  0  0  0  0  0  0  0
   41.8848   15.6164   21.6197 H   0  0  0  0  0  0  0  0  0  0  0  0
 95 96  1  0  0  0
 95 97  1  0  0  0
 95 98  1  0  0  0
 96 91  1  0  0  0
 96 99  1  0  0  0
 91 92  2  0  0  0
 91 93  1  0  0  0
 93 90  1  0  0  0
 93 94  1  0  0  0
 90103  1  0  0  0
 90 86  1  0  0  0
103104  1  0  0  0
104105  1  0  0  0
105106  2  0  0  0
105107  1  0  0  0
107108  1  0  0  0
107109  1  0  0  0
 86 87  2  0  0  0
 86 88  1  0  0  0
 88 85  1  0  0  0
 88 89  1  0  0  0
 85110  1  0  0  0
 85 81  1  0  0  0
110111  1  0  0  0
111112  1  0  0  0
112113  2  0  0  0
112114  1  0  0  0
114115  1  0  0  0
114116  1  0  0  0
 81 82  2  0  0  0
 81 83  1  0  0  0
 83 79  1  0  0  0
 83 84  1  0  0  0
 79 80  1  0  0  0
 79 75  1  0  0  0
 75 76  2  0  0  0
 75 77  1  0  0  0
 77 74  1  0  0  0
 77 78  1  0  0  0
 74117  1  0  0  0
 74 70  1  0  0  0
117118  1  0  0  0
118119  1  0  0  0
 70 71  2  0  0  0
 70 72  1  0  0  0
 72 69  1  0  0  0
 72 73  1  0  0  0
 69120  1  0  0  0
 69 65  1  0  0  0
120121  1  0  0  0
121125  1  0  0  0
121122  2  0  0  0
122123  1  0  0  0
123124  2  0  0  0
124125  1  0  0  0
125126  1  0  0  0
 65 66  2  0  0  0
 65 67  1  0  0  0
 67  1  1  0  0  0
 67 68  1  0  0  0
  1  2  1  0  0  0
  1 10  1  0  0  0
  2  8  2  0  0  0
  2  3  1  0  0  0
  3  4  2  0  0  0
  4  5  1  0  0  0
  5  6  1  0  0  0
  5  7  2  0  0  0
  6  9  1  0  0  0
  7  8  1  0  0  0
 10 11  2  0  0  0
 10 12  1  0  0  0
 12 14  1  0  0  0
 12 13  1  0  0  0
 14 58  1  0  0  0
 14 15  1  0  0  0
 58 59  1  0  0  0
 59 60  1  0  0  0
 60 61  1  0  0  0
 61 62  1  0  0  0
 62 63  1  0  0  0
 62 64  1  0  0  0
 15 16  2  0  0  0
 15 17  1  0  0  0
 17 19  1  0  0  0
 17 18  1  0  0  0
 19 51  1  0  0  0
 19 20  1  0  0  0
 51 52  1  0  0  0
 52 53  1  0  0  0
 53 54  2  0  0  0
 53 55  1  0  0  0
 55 56  1  0  0  0
 55 57  1  0  0  0
 20 21  2  0  0  0
 20 22  1  0  0  0
 22 24  1  0  0  0
 22 23  1  0  0  0
 24 44  1  0  0  0
 24 25  1  0  0  0
 44 45  1  0  0  0
 45 49  1  0  0  0
 45 46  2  0  0  0
 46 47  1  0  0  0
 47 48  2  0  0  0
 48 49  1  0  0  0
 49 50  1  0  0  0
 25 26  2  0  0  0
 25 27  1  0  0  0
 27 29  1  0  0  0
 27 28  1  0  0  0
 29 41  1  0  0  0
 29 30  1  0  0  0
 41 42  1  0  0  0
 42 43  1  0  0  0
 30 31  2  0  0  0
 30 32  1  0  0  0
 32 36  1  0  0  0
 32 33  1  0  0  0
 33 34  1  0  0  0
 34 35  1  0  0  0
 35 36  1  0  0  0
 36 37  1  0  0  0
 37 38  1  0  0  0
 37 39  2  0  0  0
 38 40  1  0  0  0
 99100  1  0  0  0
 99101  1  0  0  0
100102  1  0  0  0
M  END
> <minimizedAffinity>
-8.19346

$$$$



126129  0  0  0  0  0  0  0  0999 V2000
   41.6946   15.6032   28.3248 C   0  0  0  0  0  0  0  0  0  0  0  0
   42.2132   15.4397   29.1640 C   0  0  0  0  0  0  0  0  0  0  0  0
   43.2121   15.4023   29.1352 C   0  0  0  0  0  0  0  0  0  0  0  0
   43.7307   15.2388   29.9745 C   0  0  0  0  0  0  0  0  0  0  0  0
   43.2505   15.1126   30.8425 C   0  0  0  0  0  0  0  0  0  0  0  0
   43.7691   14.9491   31.6817 O   0  0  0  0  0  0  0  0  0  0  0  0
   42.2516   15.1500   30.8713 C   0  0  0  0  0  0  0  0  0  0  0  0
   41.7330   15.3136   30.0321 C   0  0  0  0  0  0  0  0  0  0  0  0
   44.7051   14.9141   31.6547 H   0  0  0  0  0  0  0  0  0  0  0  0
   41.1254   14.8770   27.9393 C   0  0  0  0  0  0  0  0  0  0  0  0
   40.3419   14.5292   28.4542 O   0  0  0  0  0  0  0  0  0  0  0  0
   41.3398   14.4986   27.0389 N   0  0  0  0  0  0  0  0  0  0  0  0
   42.1112   14.8409   26.5319 H   0  0  0  0  0  0  0  0  0  0  0  0
   40.7707   13.7723   26.6533 C   0  0  0  0  0  0  0  0  0  0  0  0
   40.0141   14.0017   26.0410 C   0  0  0  0  0  0  0  0  0  0  0  0
   40.1010   14.7678   25.4041 O   0  0  0  0  0  0  0  0  0  0  0  0
   39.1706   13.4652   26.0655 N   0  0  0  0  0  0  0  0  0  0  0  0
   39.0850   12.7110   26.6925 H   0  0  0  0  0  0  0  0  0  0  0  0
   38.4140   13.6947   25.4533 C   0  0  0  0  0  0  0  0  0  0  0  0
   37.5486   14.0250   25.8299 C   0  0  0  0  0  0  0  0  0  0  0  0
   37.2237   13.6824   26.7115 O   0  0  0  0  0  0  0  0  0  0  0  0
   37.0079   14.6979   25.3250 N   0  0  0  0  0  0  0  0  0  0  0  0
   37.3277   15.0351   24.4571 H   0  0  0  0  0  0  0  0  0  0  0  0
   36.1424   15.0282   25.7016 C   0  0  0  0  0  0  0  0  0  0  0  0
   35.2842   14.5815   25.4489 C   0  0  0  0  0  0  0  0  0  0  0  0
   35.1099   14.3368   24.4951 O   0  0  0  0  0  0  0  0  0  0  0  0
   34.6004   14.3793   26.1499 N   0  0  0  0  0  0  0  0  0  0  0  0
   34.7721   14.6202   27.0889 H   0  0  0  0  0  0  0  0  0  0  0  0
   33.7422   13.9326   25.8972 C   0  0  0  0  0  0  0  0  0  0  0  0
   33.5854   12.9758   26.1423 C   0  0  0  0  0  0  0  0  0  0  0  0
   33.4650   12.2893   25.4253 O   0  0  0  0  0  0  0  0  0  0  0  0
   33.5491   12.7057   27.1045 N   0  0  0  0  0  0  0  0  0  0  0  0
   33.6572   13.3145   27.8904 C   0  0  0  0  0  0  0  0  0  0  0  0
   33.5732   12.7643   28.7212 C   0  0  0  0  0  0  0  0  0  0  0  0
   33.4132   11.8155   28.4487 C   0  0  0  0  0  0  0  0  0  0  0  0
   33.3983   11.7793   27.4495 C   0  0  0  0  0  0  0  0  0  0  0  0
   33.2573   10.9605   26.8931 C   0  0  0  0  0  0  0  0  0  0  0  0
   32.3295   10.6476   26.6900 O   0  0  0  0  0  0  0  0  0  0  0  0
   34.0442   10.4545   26.5398 O   0  0  0  0  0  0  0  0  0  0  0  0
   31.5922   11.1217   27.0211 H   0  0  0  0  0  0  0  0  0  0  0  0
   33.0406   14.4426   25.3993 C   0  0  0  0  0  0  0  0  0  0  0  0
   32.4612   15.0983   25.8832 S   0  0  0  0  0  0  0  0  0  0  0  0
   32.6271   15.2967   27.2184 H   0  0  0  0  0  0  0  0  0  0  0  0
   36.1352   15.8053   26.3310 C   0  0  0  0  0  0  0  0  0  0  0  0
   36.2135   16.7369   25.9761 C   0  0  0  0  0  0  0  0  0  0  0  0
   36.4570   17.5492   26.5061 C   0  0  0  0  0  0  0  0  0  0  0  0
   36.4560   18.3341   25.8865 N   0  0  0  0  0  0  0  0  0  0  0  0
   36.2119   18.0069   24.9736 C   0  0  0  0  0  0  0  0  0  0  0  0
   36.0620   17.0197   25.0290 N   0  0  0  0  0  0  0  0  0  0  0  0
   35.8095   16.4300   24.2822 H   0  0  0  0  0  0  0  0  0  0  0  0
   38.5229   13.5938   24.4643 C   0  0  0  0  0  0  0  0  0  0  0  0
   38.3521   12.7094   24.0301 C   0  0  0  0  0  0  0  0  0  0  0  0
   38.3780   12.6282   23.0337 C   0  0  0  0  0  0  0  0  0  0  0  0
   37.7175   13.1287   22.4740 O   0  0  0  0  0  0  0  0  0  0  0  0
   39.0644   12.0466   22.5971 N   0  0  0  0  0  0  0  0  0  0  0  0
   39.7146   11.5540   23.1483 H   0  0  0  0  0  0  0  0  0  0  0  0
   39.0899   11.9667   21.6162 H   0  0  0  0  0  0  0  0  0  0  0  0
   40.9581   12.8165   26.8800 C   0  0  0  0  0  0  0  0  0  0  0  0
   41.7062   12.3324   26.4259 C   0  0  0  0  0  0  0  0  0  0  0  0
   41.9993   11.4373   26.7619 C   0  0  0  0  0  0  0  0  0  0  0  0
   42.2514   10.7182   26.1145 C   0  0  0  0  0  0  0  0  0  0  0  0
   42.8721   10.9221   25.3574 N   0  0  0  0  0  0  0  0  0  0  0  0
   43.2481   11.8637   25.2457 H   0  0  0  0  0  0  0  0  0  0  0  0
   43.1293   10.1886   24.6970 H   0  0  0  0  0  0  0  0  0  0  0  0
   41.0295   17.1742   28.0254 C   0  0  0  0  0  0  0  0  0  0  0  0
   40.2633   16.9657   28.6334 O   0  0  0  0  0  0  0  0  0  0  0  0
   41.7451   16.4930   27.8712 N   0  0  0  0  0  0  0  0  0  0  0  0
   42.4993   16.6982   27.2727 H   0  0  0  0  0  0  0  0  0  0  0  0
   41.0800   18.0639   27.5717 C   0  0  0  0  0  0  0  0  0  0  0  0
   42.4100   19.0347   28.1089 C   0  0  0  0  0  0  0  0  0  0  0  0
   41.9614   19.1598   28.9938 O   0  0  0  0  0  0  0  0  0  0  0  0
   41.9693   18.4868   27.3979 N   0  0  0  0  0  0  0  0  0  0  0  0
   42.4110   18.3636   26.5267 H   0  0  0  0  0  0  0  0  0  0  0  0
   43.2994   19.4575   27.9350 C   0  0  0  0  0  0  0  0  0  0  0  0
   44.6452   18.5999   27.2619 C   0  0  0  0  0  0  0  0  0  0  0  0
   44.9121   18.3000   28.1778 O   0  0  0  0  0  0  0  0  0  0  0  0
   43.8389   19.1787   27.1406 N   0  0  0  0  0  0  0  0  0  0  0  0
   43.5761   19.4740   26.2389 H   0  0  0  0  0  0  0  0  0  0  0  0
   45.1847   18.3210   26.4674 C   0  0  0  0  0  0  0  0  0  0  0  0
   46.1447   18.5913   26.3951 C   0  0  0  0  0  0  0  0  0  0  0  0
   45.0394   17.9031   24.7929 C   0  0  0  0  0  0  0  0  0  0  0  0
   45.7352   18.5834   24.5627 O   0  0  0  0  0  0  0  0  0  0  0  0
   44.7641   17.7719   25.7453 N   0  0  0  0  0  0  0  0  0  0  0  0
   44.0792   17.1020   25.9719 H   0  0  0  0  0  0  0  0  0  0  0  0
   44.6188   17.3539   24.0707 C   0  0  0  0  0  0  0  0  0  0  0  0
   44.8047   15.6337   24.1493 C   0  0  0  0  0  0  0  0  0  0  0  0
   45.7392   15.7189   23.8039 O   0  0  0  0  0  0  0  0  0  0  0  0
   44.2445   16.4512   24.2827 N   0  0  0  0  0  0  0  0  0  0  0  0
   43.3245   16.3673   24.6229 H   0  0  0  0  0  0  0  0  0  0  0  0
   44.4304   14.7309   24.3614 C   0  0  0  0  0  0  0  0  0  0  0  0
   43.3913   14.0251   23.1690 C   0  0  0  0  0  0  0  0  0  0  0  0
   44.1867   13.8130   22.6013 O   0  0  0  0  0  0  0  0  0  0  0  0
   43.5131   14.4840   24.0491 N   0  0  0  0  0  0  0  0  0  0  0  0
   42.7300   14.6928   24.6081 H   0  0  0  0  0  0  0  0  0  0  0  0
   41.9740   13.0391   23.3084 N   0  0  0  0  0  0  0  0  0  0  0  0
   42.4739   13.7781   22.8567 C   0  0  0  0  0  0  0  0  0  0  0  0
   41.0383   12.7873   22.9899 H   0  0  0  0  0  0  0  0  0  0  0  0
   42.3998   12.5372   24.0876 H   0  0  0  0  0  0  0  0  0  0  0  0
   42.0564   14.2702   22.0928 C   0  0  0  0  0  0  0  0  0  0  0  0
   41.8246   15.2382   22.1885 O   0  0  0  0  0  0  0  0  0  0  0  0
   41.8709   13.7942   21.2331 C   0  0  0  0  0  0  0  0  0  0  0  0
   42.0046   15.6999   23.0224 H   0  0  0  0  0  0  0  0  0  0  0  0
   44.9734   14.0751   24.8859 C   0  0  0  0  0  0  0  0  0  0  0  0
   44.8273   13.9792   25.8704 C   0  0  0  0  0  0  0  0  0  0  0  0
   45.2583   13.2269   26.3689 C   0  0  0  0  0  0  0  0  0  0  0  0
   45.5276   12.3950   25.8838 O   0  0  0  0  0  0  0  0  0  0  0  0
   45.4198   13.3065   27.3526 N   0  0  0  0  0  0  0  0  0  0  0  0
   45.1547   14.1255   27.8302 H   0  0  0  0  0  0  0  0  0  0  0  0
   45.8440   12.5660   27.8433 H   0  0  0  0  0  0  0  0  0  0  0  0
   44.5726   17.7074   23.1364 C   0  0  0  0  0  0  0  0  0  0  0  0
   43.7018   18.0321   22.7672 C   0  0  0  0  0  0  0  0  0  0  0  0
   43.6409   18.3229   21.8124 C   0  0  0  0  0  0  0  0  0  0  0  0
   43.7579   19.2872   21.5750 O   0  0  0  0  0  0  0  0  0  0  0  0
   43.4629   17.6494   21.0949 N   0  0  0  0  0  0  0  0  0  0  0  0
   43.3477   16.7000   21.3287 H   0  0  0  0  0  0  0  0  0  0  0  0
   43.4030   17.9357   20.1549 H   0  0  0  0  0  0  0  0  0  0  0  0
   43.6493   20.1592   28.5557 C   0  0  0  0  0  0  0  0  0  0  0  0
   43.6903   21.1134   28.2593 O   0  0  0  0  0  0  0  0  0  0  0  0
   44.0297   21.7941   28.8614 H   0  0  0  0  0  0  0  0  0  0  0  0
   40.2411   18.5308   27.2919 C   0  0  0  0  0  0  0  0  0  0  0  0
   40.0317   18.6436   26.3206 C   0  0  0  0  0  0  0  0  0  0  0  0
   40.1079   17.9371   25.6171 C   0  0  0  0  0  0  0  0  0  0  0  0
   39.8327   18.3395   24.7439 N   0  0  0  0  0  0  0  0  0  0  0  0
   39.5865   19.2948   24.9079 C   0  0  0  0  0  0  0  0  0  0  0  0
   39.7095   19.4827   25.8824 N   0  0  0  0  0  0  0  0  0  0  0  0
   39.5426   20.3428   26.3315 H   0  0  0  0  0  0  0  0  0  0  0  0
 95 96  1  0  0  0
 95 97  1  0  0  0
 95 98  1  0  0  0
 96 91  1  0  0  0
 96 99  1  0  0  0
 91 92  2  0  0  0
 91 93  1  0  0  0
 93 90  1  0  0  0
 93 94  1  0  0  0
 90103  1  0  0  0
 90 86  1  0  0  0
103104  1  0  0  0
104105  1  0  0  0
105106  2  0  0  0
105107  1  0  0  0
107108  1  0  0  0
107109  1  0  0  0
 86 87  2  0  0  0
 86 88  1  0  0  0
 88 85  1  0  0  0
 88 89  1  0  0  0
 85110  1  0  0  0
 85 81  1  0  0  0
110111  1  0  0  0
111112  1  0  0  0
112113  2  0  0  0
112114  1  0  0  0
114115  1  0  0  0
114116  1  0  0  0
 81 82  2  0  0  0
 81 83  1  0  0  0
 83 79  1  0  0  0
 83 84  1  0  0  0
 79 80  1  0  0  0
 79 75  1  0  0  0
 75 76  2  0  0  0
 75 77  1  0  0  0
 77 74  1  0  0  0
 77 78  1  0  0  0
 74117  1  0  0  0
 74 70  1  0  0  0
117118  1  0  0  0
118119  1  0  0  0
 70 71  2  0  0  0
 70 72  1  0  0  0
 72 69  1  0  0  0
 72 73  1  0  0  0
 69120  1  0  0  0
 69 65  1  0  0  0
120121  1  0  0  0
121125  1  0  0  0
121122  2  0  0  0
122123  1  0  0  0
123124  2  0  0  0
124125  1  0  0  0
125126  1  0  0  0
 65 66  2  0  0  0
 65 67  1  0  0  0
 67  1  1  0  0  0
 67 68  1  0  0  0
  1  2  1  0  0  0
  1 10  1  0  0  0
  2  8  2  0  0  0
  2  3  1  0  0  0
  3  4  2  0  0  0
  4  5  1  0  0  0
  5  6  1  0  0  0
  5  7  2  0  0  0
  6  9  1  0  0  0
  7  8  1  0  0  0
 10 11  2  0  0  0
 10 12  1  0  0  0
 12 14  1  0  0  0
 12 13  1  0  0  0
 14 58  1  0  0  0
 14 15  1  0  0  0
 58 59  1  0  0  0
 59 60  1  0  0  0
 60 61  1  0  0  0
 61 62  1  0  0  0
 62 63  1  0  0  0
 62 64  1  0  0  0
 15 16  2  0  0  0
 15 17  1  0  0  0
 17 19  1  0  0  0
 17 18  1  0  0  0
 19 51  1  0  0  0
 19 20  1  0  0  0
 51 52  1  0  0  0
 52 53  1  0  0  0
 53 54  2  0  0  0
 53 55  1  0  0  0
 55 56  1  0  0  0
 55 57  1  0  0  0
 20 21  2  0  0  0
 20 22  1  0  0  0
 22 24  1  0  0  0
 22 23  1  0  0  0
 24 44  1  0  0  0
 24 25  1  0  0  0
 44 45  1  0  0  0
 45 49  1  0  0  0
 45 46  2  0  0  0
 46 47  1  0  0  0
 47 48  2  0  0  0
 48 49  1  0  0  0
 49 50  1  0  0  0
 25 26  2  0  0  0
 25 27  1  0  0  0
 27 29  1  0  0  0
 27 28  1  0  0  0
 29 41  1  0  0  0
 29 30  1  0  0  0
 41 42  1  0  0  0
 42 43  1  0  0  0
 30 31  2  0  0  0
 30 32  1  0  0  0
 32 36  1  0  0  0
 32 33  1  0  0  0
 33 34  1  0  0  0
 34 35  1  0  0  0
 35 36  1  0  0  0
 36 37  1  0  0  0
 37 38  1  0  0  0
 37 39  2  0  0  0
 38 40  1  0  0  0
 99100  1  0  0  0
 99101  1  0  0  0
100102  1  0  0  0
M  END
> <minimizedAffinity>
-8.14240

$$$$



126129  0  0  0  0  0  0  0  0999 V2000
   37.8036   16.6396   27.6513 C   0  0  0  0  0  0  0  0  0  0  0  0
   38.0341   16.2479   28.5420 C   0  0  0  0  0  0  0  0  0  0  0  0
   37.9944   16.8165   29.3637 C   0  0  0  0  0  0  0  0  0  0  0  0
   38.2249   16.4248   30.2545 C   0  0  0  0  0  0  0  0  0  0  0  0
   38.4951   15.4645   30.3236 C   0  0  0  0  0  0  0  0  0  0  0  0
   38.7256   15.0728   31.2143 O   0  0  0  0  0  0  0  0  0  0  0  0
   38.5349   14.8959   29.5020 C   0  0  0  0  0  0  0  0  0  0  0  0
   38.3044   15.2876   28.6112 C   0  0  0  0  0  0  0  0  0  0  0  0
   38.6884   15.6056   31.9842 H   0  0  0  0  0  0  0  0  0  0  0  0
   38.5232   17.0236   27.0727 C   0  0  0  0  0  0  0  0  0  0  0  0
   38.8230   16.5319   26.2551 O   0  0  0  0  0  0  0  0  0  0  0  0
   38.9429   17.8992   27.3116 N   0  0  0  0  0  0  0  0  0  0  0  0
   38.6477   18.3832   28.1165 H   0  0  0  0  0  0  0  0  0  0  0  0
   39.6625   18.2832   26.7330 C   0  0  0  0  0  0  0  0  0  0  0  0
   40.5944   18.3697   27.0851 C   0  0  0  0  0  0  0  0  0  0  0  0
   40.8831   19.2156   27.5334 O   0  0  0  0  0  0  0  0  0  0  0  0
   41.2377   17.6101   26.9890 N   0  0  0  0  0  0  0  0  0  0  0  0
   40.9534   16.7772   26.5477 H   0  0  0  0  0  0  0  0  0  0  0  0
   42.1696   17.6965   27.3411 C   0  0  0  0  0  0  0  0  0  0  0  0
   42.9370   17.7900   26.7069 C   0  0  0  0  0  0  0  0  0  0  0  0
   43.5964   18.5324   26.8258 O   0  0  0  0  0  0  0  0  0  0  0  0
   43.0452   17.1412   25.9536 N   0  0  0  0  0  0  0  0  0  0  0  0
   42.3961   16.4103   25.8365 H   0  0  0  0  0  0  0  0  0  0  0  0
   43.8126   17.2347   25.3194 C   0  0  0  0  0  0  0  0  0  0  0  0
   43.6595   17.5940   24.3988 C   0  0  0  0  0  0  0  0  0  0  0  0
   44.1708   18.3930   24.0825 O   0  0  0  0  0  0  0  0  0  0  0  0
   42.9951   17.1542   23.7945 N   0  0  0  0  0  0  0  0  0  0  0  0
   42.4918   16.3675   24.1059 H   0  0  0  0  0  0  0  0  0  0  0  0
   42.8420   17.5134   22.8739 C   0  0  0  0  0  0  0  0  0  0  0  0
   43.4138   17.2029   22.1145 C   0  0  0  0  0  0  0  0  0  0  0  0
   43.9612   17.8620   21.5989 O   0  0  0  0  0  0  0  0  0  0  0  0
   43.4380   16.2333   21.8708 N   0  0  0  0  0  0  0  0  0  0  0  0
   42.9295   15.5007   22.3231 C   0  0  0  0  0  0  0  0  0  0  0  0
   43.1523   14.6408   21.8638 C   0  0  0  0  0  0  0  0  0  0  0  0
   43.7985   14.8421   21.1276 C   0  0  0  0  0  0  0  0  0  0  0  0
   43.9751   15.8263   21.1320 C   0  0  0  0  0  0  0  0  0  0  0  0
   44.5821   16.3173   20.5072 C   0  0  0  0  0  0  0  0  0  0  0  0
   45.5447   16.4479   20.7448 O   0  0  0  0  0  0  0  0  0  0  0  0
   44.2266   16.6778   19.6448 O   0  0  0  0  0  0  0  0  0  0  0  0
   45.8778   16.1102   21.5528 H   0  0  0  0  0  0  0  0  0  0  0  0
   42.1171   18.1832   22.7127 C   0  0  0  0  0  0  0  0  0  0  0  0
   41.1620   17.8886   22.6819 S   0  0  0  0  0  0  0  0  0  0  0  0
   40.8488   16.5771   22.8593 H   0  0  0  0  0  0  0  0  0  0  0  0
   44.7332   16.9690   25.6057 C   0  0  0  0  0  0  0  0  0  0  0  0
   45.0993   16.0756   25.3456 C   0  0  0  0  0  0  0  0  0  0  0  0
   44.9242   15.2095   25.8141 C   0  0  0  0  0  0  0  0  0  0  0  0
   45.4215   14.4900   25.3295 N   0  0  0  0  0  0  0  0  0  0  0  0
   45.9041   14.9112   24.5615 C   0  0  0  0  0  0  0  0  0  0  0  0
   45.7049   15.8912   24.5715 N   0  0  0  0  0  0  0  0  0  0  0  0
   46.0453   16.5574   23.9316 H   0  0  0  0  0  0  0  0  0  0  0  0
   42.3341   17.6894   28.3274 C   0  0  0  0  0  0  0  0  0  0  0  0
   42.3597   16.8217   28.8238 C   0  0  0  0  0  0  0  0  0  0  0  0
   42.3036   16.8149   29.8222 C   0  0  0  0  0  0  0  0  0  0  0  0
   41.5827   17.3301   30.2859 O   0  0  0  0  0  0  0  0  0  0  0  0
   42.9682   16.2930   30.3569 N   0  0  0  0  0  0  0  0  0  0  0  0
   43.6778   15.7859   29.9003 H   0  0  0  0  0  0  0  0  0  0  0  0
   42.9129   16.2864   31.3398 H   0  0  0  0  0  0  0  0  0  0  0  0
   39.4500   18.5809   25.8022 C   0  0  0  0  0  0  0  0  0  0  0  0
   39.0218   19.4713   25.6475 C   0  0  0  0  0  0  0  0  0  0  0  0
   38.7680   19.7498   24.7212 C   0  0  0  0  0  0  0  0  0  0  0  0
   37.8274   20.0241   24.5216 C   0  0  0  0  0  0  0  0  0  0  0  0
   37.6336   20.6095   23.7343 N   0  0  0  0  0  0  0  0  0  0  0  0
   38.3955   20.9266   23.1348 H   0  0  0  0  0  0  0  0  0  0  0  0
   36.6741   20.8893   23.5307 H   0  0  0  0  0  0  0  0  0  0  0  0
   36.3149   17.4877   27.3977 C   0  0  0  0  0  0  0  0  0  0  0  0
   36.7261   18.3205   27.7684 O   0  0  0  0  0  0  0  0  0  0  0  0
   36.8536   16.6473   27.3392 N   0  0  0  0  0  0  0  0  0  0  0  0
   36.4488   15.8274   26.9743 H   0  0  0  0  0  0  0  0  0  0  0  0
   35.3649   17.4954   27.0856 C   0  0  0  0  0  0  0  0  0  0  0  0
   35.0144   16.6791   25.5987 C   0  0  0  0  0  0  0  0  0  0  0  0
   35.4090   17.4422   25.0868 O   0  0  0  0  0  0  0  0  0  0  0  0
   34.9923   16.7057   26.5981 N   0  0  0  0  0  0  0  0  0  0  0  0
   34.6039   15.9545   27.1021 H   0  0  0  0  0  0  0  0  0  0  0  0
   34.6419   15.8895   25.1112 C   0  0  0  0  0  0  0  0  0  0  0  0
   35.2960   14.2945   25.2786 C   0  0  0  0  0  0  0  0  0  0  0  0
   35.9713   14.4971   24.5694 O   0  0  0  0  0  0  0  0  0  0  0  0
   34.6313   14.9907   25.5495 N   0  0  0  0  0  0  0  0  0  0  0  0
   33.9665   14.7913   26.2476 H   0  0  0  0  0  0  0  0  0  0  0  0
   35.2855   13.3957   25.7168 C   0  0  0  0  0  0  0  0  0  0  0  0
   35.1555   12.5719   25.1651 C   0  0  0  0  0  0  0  0  0  0  0  0
   34.7150   12.8534   27.2596 C   0  0  0  0  0  0  0  0  0  0  0  0
   33.9057   12.4610   26.8224 O   0  0  0  0  0  0  0  0  0  0  0  0
   35.4049   13.3207   26.7068 N   0  0  0  0  0  0  0  0  0  0  0  0
   36.2016   13.7070   27.1372 H   0  0  0  0  0  0  0  0  0  0  0  0
   34.8343   12.7783   28.2497 C   0  0  0  0  0  0  0  0  0  0  0  0
   35.7891   11.5684   29.0398 C   0  0  0  0  0  0  0  0  0  0  0  0
   36.5927   12.1600   28.9747 O   0  0  0  0  0  0  0  0  0  0  0  0
   34.9100   11.8776   28.6773 N   0  0  0  0  0  0  0  0  0  0  0  0
   34.1188   11.2952   28.7414 H   0  0  0  0  0  0  0  0  0  0  0  0
   35.8648   10.6676   29.4675 C   0  0  0  0  0  0  0  0  0  0  0  0
   36.2326    9.3021   28.4674 C   0  0  0  0  0  0  0  0  0  0  0  0
   37.1966    9.5677   28.4593 O   0  0  0  0  0  0  0  0  0  0  0  0
   35.5667    9.8521   28.9715 N   0  0  0  0  0  0  0  0  0  0  0  0
   34.6175    9.5906   28.9795 H   0  0  0  0  0  0  0  0  0  0  0  0
   35.4947    7.7351   28.4634 N   0  0  0  0  0  0  0  0  0  0  0  0
   35.9345    8.4865   27.9714 C   0  0  0  0  0  0  0  0  0  0  0  0
   35.1905    6.9032   27.9576 H   0  0  0  0  0  0  0  0  0  0  0  0
   35.3502    7.8006   29.4710 H   0  0  0  0  0  0  0  0  0  0  0  0
   36.0761    8.4223   26.9836 C   0  0  0  0  0  0  0  0  0  0  0  0
   35.5568    9.0116   26.3647 O   0  0  0  0  0  0  0  0  0  0  0  0
   36.7371    7.7689   26.6147 C   0  0  0  0  0  0  0  0  0  0  0  0
   34.9156    9.6454   26.7226 H   0  0  0  0  0  0  0  0  0  0  0  0
   36.2385   10.5824   30.3911 C   0  0  0  0  0  0  0  0  0  0  0  0
   35.6221   10.4959   31.1738 C   0  0  0  0  0  0  0  0  0  0  0  0
   35.9958   10.4082   32.0972 C   0  0  0  0  0  0  0  0  0  0  0  0
   36.1733    9.5019   32.4808 O   0  0  0  0  0  0  0  0  0  0  0  0
   36.1921   11.2268   32.6370 N   0  0  0  0  0  0  0  0  0  0  0  0
   36.0174   12.1190   32.2593 H   0  0  0  0  0  0  0  0  0  0  0  0
   36.5600   11.1405   33.5461 H   0  0  0  0  0  0  0  0  0  0  0  0
   34.8781   13.6041   28.8120 C   0  0  0  0  0  0  0  0  0  0  0  0
   34.0427   13.9820   29.2111 C   0  0  0  0  0  0  0  0  0  0  0  0
   34.0826   14.8222   29.7518 C   0  0  0  0  0  0  0  0  0  0  0  0
   34.9098   15.3840   29.7424 O   0  0  0  0  0  0  0  0  0  0  0  0
   33.2954   15.1007   30.3021 N   0  0  0  0  0  0  0  0  0  0  0  0
   32.4810   14.5476   30.3114 H   0  0  0  0  0  0  0  0  0  0  0  0
   33.3347   15.9279   30.8344 H   0  0  0  0  0  0  0  0  0  0  0  0
   34.2799   15.9987   24.1854 C   0  0  0  0  0  0  0  0  0  0  0  0
   33.3009   16.1471   24.0456 O   0  0  0  0  0  0  0  0  0  0  0  0
   32.9498   16.2530   23.1476 H   0  0  0  0  0  0  0  0  0  0  0  0
   34.7874   18.2928   27.2610 C   0  0  0  0  0  0  0  0  0  0  0  0
   34.0807   18.2527   27.9674 C   0  0  0  0  0  0  0  0  0  0  0  0
   33.1491   17.9096   27.8480 C   0  0  0  0  0  0  0  0  0  0  0  0
   32.6741   17.9935   28.7241 N   0  0  0  0  0  0  0  0  0  0  0  0
   33.3124   18.3885   29.3849 C   0  0  0  0  0  0  0  0  0  0  0  0
   34.1817   18.5487   28.9172 N   0  0  0  0  0  0  0  0  0  0  0  0
   34.9942   18.9307   29.3210 H   0  0  0  0  0  0  0  0  0  0  0  0
 95 96  1  0  0  0
 95 97  1  0  0  0
 95 98  1  0  0  0
 96 91  1  0  0  0
 96 99  1  0  0  0
 91 92  2  0  0  0
 91 93  1  0  0  0
 93 90  1  0  0  0
 93 94  1  0  0  0
 90103  1  0  0  0
 90 86  1  0  0  0
103104  1  0  0  0
104105  1  0  0  0
105106  2  0  0  0
105107  1  0  0  0
107108  1  0  0  0
107109  1  0  0  0
 86 87  2  0  0  0
 86 88  1  0  0  0
 88 85  1  0  0  0
 88 89  1  0  0  0
 85110  1  0  0  0
 85 81  1  0  0  0
110111  1  0  0  0
111112  1  0  0  0
112113  2  0  0  0
112114  1  0  0  0
114115  1  0  0  0
114116  1  0  0  0
 81 82  2  0  0  0
 81 83  1  0  0  0
 83 79  1  0  0  0
 83 84  1  0  0  0
 79 80  1  0  0  0
 79 75  1  0  0  0
 75 76  2  0  0  0
 75 77  1  0  0  0
 77 74  1  0  0  0
 77 78  1  0  0  0
 74117  1  0  0  0
 74 70  1  0  0  0
117118  1  0  0  0
118119  1  0  0  0
 70 71  2  0  0  0
 70 72  1  0  0  0
 72 69  1  0  0  0
 72 73  1  0  0  0
 69120  1  0  0  0
 69 65  1  0  0  0
120121  1  0  0  0
121125  1  0  0  0
121122  2  0  0  0
122123  1  0  0  0
123124  2  0  0  0
124125  1  0  0  0
125126  1  0  0  0
 65 66  2  0  0  0
 65 67  1  0  0  0
 67  1  1  0  0  0
 67 68  1  0  0  0
  1  2  1  0  0  0
  1 10  1  0  0  0
  2  8  2  0  0  0
  2  3  1  0  0  0
  3  4  2  0  0  0
  4  5  1  0  0  0
  5  6  1  0  0  0
  5  7  2  0  0  0
  6  9  1  0  0  0
  7  8  1  0  0  0
 10 11  2  0  0  0
 10 12  1  0  0  0
 12 14  1  0  0  0
 12 13  1  0  0  0
 14 58  1  0  0  0
 14 15  1  0  0  0
 58 59  1  0  0  0
 59 60  1  0  0  0
 60 61  1  0  0  0
 61 62  1  0  0  0
 62 63  1  0  0  0
 62 64  1  0  0  0
 15 16  2  0  0  0
 15 17  1  0  0  0
 17 19  1  0  0  0
 17 18  1  0  0  0
 19 51  1  0  0  0
 19 20  1  0  0  0
 51 52  1  0  0  0
 52 53  1  0  0  0
 53 54  2  0  0  0
 53 55  1  0  0  0
 55 56  1  0  0  0
 55 57  1  0  0  0
 20 21  2  0  0  0
 20 22  1  0  0  0
 22 24  1  0  0  0
 22 23  1  0  0  0
 24 44  1  0  0  0
 24 25  1  0  0  0
 44 45  1  0  0  0
 45 49  1  0  0  0
 45 46  2  0  0  0
 46 47  1  0  0  0
 47 48  2  0  0  0
 48 49  1  0  0  0
 49 50  1  0  0  0
 25 26  2  0  0  0
 25 27  1  0  0  0
 27 29  1  0  0  0
 27 28  1  0  0  0
 29 41  1  0  0  0
 29 30  1  0  0  0
 41 42  1  0  0  0
 42 43  1  0  0  0
 30 31  2  0  0  0
 30 32  1  0  0  0
 32 36  1  0  0  0
 32 33  1  0  0  0
 33 34  1  0  0  0
 34 35  1  0  0  0
 35 36  1  0  0  0
 36 37  1  0  0  0
 37 38  1  0  0  0
 37 39  2  0  0  0
 38 40  1  0  0  0
 99100  1  0  0  0
 99101  1  0  0  0
100102  1  0  0  0
M  END
> <minimizedAffinity>
-8.12483

$$$$
