


126129  0  0  0  0  0  0  0  0999 V2000
   35.7184    9.3292    6.0981 C   0  0  0  0  0  0  0  0  0  0  0  0
   36.4651    8.8733    5.6137 C   0  0  0  0  0  0  0  0  0  0  0  0
   37.3571    8.7700    6.0538 C   0  0  0  0  0  0  0  0  0  0  0  0
   38.1038    8.3140    5.5693 C   0  0  0  0  0  0  0  0  0  0  0  0
   37.9584    7.9614    4.6449 C   0  0  0  0  0  0  0  0  0  0  0  0
   38.7050    7.5055    4.1606 O   0  0  0  0  0  0  0  0  0  0  0  0
   37.0664    8.0647    4.2049 C   0  0  0  0  0  0  0  0  0  0  0  0
   36.3197    8.5207    4.6893 C   0  0  0  0  0  0  0  0  0  0  0  0
   39.5409    7.4087    4.5728 H   0  0  0  0  0  0  0  0  0  0  0  0
   35.7455   10.3186    6.2408 C   0  0  0  0  0  0  0  0  0  0  0  0
   36.4709   10.7239    6.7971 O   0  0  0  0  0  0  0  0  0  0  0  0
   35.0472   10.9027    5.8271 N   0  0  0  0  0  0  0  0  0  0  0  0
   34.3330   10.5037    5.2793 H   0  0  0  0  0  0  0  0  0  0  0  0
   35.0742   11.8922    5.9697 C   0  0  0  0  0  0  0  0  0  0  0  0
   35.5187   12.4825    5.2960 C   0  0  0  0  0  0  0  0  0  0  0  0
   35.9758   13.3217    5.5908 O   0  0  0  0  0  0  0  0  0  0  0  0
   35.5062   12.2337    4.3275 N   0  0  0  0  0  0  0  0  0  0  0  0
   35.0562   11.4075    4.0374 H   0  0  0  0  0  0  0  0  0  0  0  0
   35.9507   12.8240    3.6538 C   0  0  0  0  0  0  0  0  0  0  0  0
   35.4305   13.5508    3.2053 C   0  0  0  0  0  0  0  0  0  0  0  0
   34.4447   13.4500    3.0706 O   0  0  0  0  0  0  0  0  0  0  0  0
   35.8960   14.3784    2.8915 N   0  0  0  0  0  0  0  0  0  0  0  0
   36.8665   14.4776    3.0241 H   0  0  0  0  0  0  0  0  0  0  0  0
   35.3758   15.1052    2.4430 C   0  0  0  0  0  0  0  0  0  0  0  0
   35.2799   15.9971    2.8848 C   0  0  0  0  0  0  0  0  0  0  0  0
   36.0255   16.6617    2.8366 O   0  0  0  0  0  0  0  0  0  0  0  0
   34.4383   16.2244    3.3748 N   0  0  0  0  0  0  0  0  0  0  0  0
   33.7043   15.5701    3.4223 H   0  0  0  0  0  0  0  0  0  0  0  0
   34.3424   17.1164    3.8167 C   0  0  0  0  0  0  0  0  0  0  0  0
   34.5609   17.2198    4.7870 C   0  0  0  0  0  0  0  0  0  0  0  0
   35.2782   17.8552    5.0730 O   0  0  0  0  0  0  0  0  0  0  0  0
   34.0622   16.6877    5.4713 N   0  0  0  0  0  0  0  0  0  0  0  0
   33.3319   16.0300    5.2867 C   0  0  0  0  0  0  0  0  0  0  0  0
   33.0246   15.6559    6.1617 C   0  0  0  0  0  0  0  0  0  0  0  0
   33.5649   16.0824    6.8870 C   0  0  0  0  0  0  0  0  0  0  0  0
   34.2061   16.7202    6.4604 C   0  0  0  0  0  0  0  0  0  0  0  0
   34.8740   17.2902    6.9387 C   0  0  0  0  0  0  0  0  0  0  0  0
   34.5900   18.1581    7.3463 O   0  0  0  0  0  0  0  0  0  0  0  0
   35.8261   16.9924    7.0096 O   0  0  0  0  0  0  0  0  0  0  0  0
   33.6980   18.4372    7.2799 H   0  0  0  0  0  0  0  0  0  0  0  0
   34.0279   17.9050    3.2882 C   0  0  0  0  0  0  0  0  0  0  0  0
   33.0764   17.9564    2.9850 S   0  0  0  0  0  0  0  0  0  0  0  0
   32.2099   16.9539    3.2914 H   0  0  0  0  0  0  0  0  0  0  0  0
   34.9515   14.9400    1.5527 C   0  0  0  0  0  0  0  0  0  0  0  0
   35.4466   15.1647    0.7134 C   0  0  0  0  0  0  0  0  0  0  0  0
   35.0891   15.6938   -0.0562 C   0  0  0  0  0  0  0  0  0  0  0  0
   35.8077   15.7560   -0.7488 N   0  0  0  0  0  0  0  0  0  0  0  0
   36.6094   15.2653   -0.4073 C   0  0  0  0  0  0  0  0  0  0  0  0
   36.3861   14.8999    0.4965 N   0  0  0  0  0  0  0  0  0  0  0  0
   36.9862   14.3722    1.0715 H   0  0  0  0  0  0  0  0  0  0  0  0
   36.9154   12.6876    3.4286 C   0  0  0  0  0  0  0  0  0  0  0  0
   37.2209   11.8162    3.0449 C   0  0  0  0  0  0  0  0  0  0  0  0
   38.1981   11.6297    2.9433 C   0  0  0  0  0  0  0  0  0  0  0  0
   38.6295   11.6998    2.0438 O   0  0  0  0  0  0  0  0  0  0  0  0
   38.7438   11.3733    3.7410 N   0  0  0  0  0  0  0  0  0  0  0  0
   38.3189   11.3044    4.6265 H   0  0  0  0  0  0  0  0  0  0  0  0
   39.7058   11.1897    3.6410 H   0  0  0  0  0  0  0  0  0  0  0  0
   34.6567   12.2912    6.7861 C   0  0  0  0  0  0  0  0  0  0  0  0
   33.6626   12.2822    6.8946 C   0  0  0  0  0  0  0  0  0  0  0  0
   33.2592   12.3111    7.8091 C   0  0  0  0  0  0  0  0  0  0  0  0
   32.2836   12.5009    7.9195 C   0  0  0  0  0  0  0  0  0  0  0  0
   31.7575   12.0221    8.6223 N   0  0  0  0  0  0  0  0  0  0  0  0
   32.2160   11.3402    9.2267 H   0  0  0  0  0  0  0  0  0  0  0  0
   30.7624   12.2156    8.7349 H   0  0  0  0  0  0  0  0  0  0  0  0
   34.8909    8.5577    7.4096 C   0  0  0  0  0  0  0  0  0  0  0  0
   35.6108    8.8531    8.0377 O   0  0  0  0  0  0  0  0  0  0  0  0
   34.9447    8.7958    6.4398 N   0  0  0  0  0  0  0  0  0  0  0  0
   34.2360    8.5050    5.8215 H   0  0  0  0  0  0  0  0  0  0  0  0
   34.1171    8.0242    7.7513 C   0  0  0  0  0  0  0  0  0  0  0  0
   33.4414    6.6988    6.8644 C   0  0  0  0  0  0  0  0  0  0  0  0
   34.1297    6.0871    7.2542 O   0  0  0  0  0  0  0  0  0  0  0  0
   33.4351    7.6674    7.1130 N   0  0  0  0  0  0  0  0  0  0  0  0
   32.7574    8.2697    6.7293 H   0  0  0  0  0  0  0  0  0  0  0  0
   32.7593    6.3419    6.2262 C   0  0  0  0  0  0  0  0  0  0  0  0
   33.0140    6.3294    4.5130 C   0  0  0  0  0  0  0  0  0  0  0  0
   33.5048    5.4618    4.5924 O   0  0  0  0  0  0  0  0  0  0  0  0
   32.6412    6.7695    5.3299 N   0  0  0  0  0  0  0  0  0  0  0  0
   32.1581    7.6237    5.2518 H   0  0  0  0  0  0  0  0  0  0  0  0
   32.8960    6.7569    3.6167 C   0  0  0  0  0  0  0  0  0  0  0  0
   32.6487    6.1984    2.8250 C   0  0  0  0  0  0  0  0  0  0  0  0
   32.3023    8.3017    3.1057 C   0  0  0  0  0  0  0  0  0  0  0  0
   31.4502    7.8742    2.8037 O   0  0  0  0  0  0  0  0  0  0  0  0
   33.0252    7.7430    3.5122 N   0  0  0  0  0  0  0  0  0  0  0  0
   33.8641    8.1638    3.8096 H   0  0  0  0  0  0  0  0  0  0  0  0
   32.4315    9.2878    3.0012 C   0  0  0  0  0  0  0  0  0  0  0  0
   31.8177   10.2211    4.3249 C   0  0  0  0  0  0  0  0  0  0  0  0
   32.5586    9.8842    4.9059 O   0  0  0  0  0  0  0  0  0  0  0  0
   31.7542    9.9229    3.3725 N   0  0  0  0  0  0  0  0  0  0  0  0
   31.0248   10.2546    2.8005 H   0  0  0  0  0  0  0  0  0  0  0  0
   31.1405   10.8562    4.6963 C   0  0  0  0  0  0  0  0  0  0  0  0
   29.9263   10.1996    5.7425 C   0  0  0  0  0  0  0  0  0  0  0  0
   29.4452    9.8257    4.9496 O   0  0  0  0  0  0  0  0  0  0  0  0
   30.7739   10.7149    5.6159 N   0  0  0  0  0  0  0  0  0  0  0  0
   31.2476   11.0830    6.3965 H   0  0  0  0  0  0  0  0  0  0  0  0
   29.0879   10.8041    7.1324 N   0  0  0  0  0  0  0  0  0  0  0  0
   29.5598   10.0583    6.6622 C   0  0  0  0  0  0  0  0  0  0  0  0
   28.7141   10.6600    8.0704 H   0  0  0  0  0  0  0  0  0  0  0  0
   28.9805   11.7090    6.6740 H   0  0  0  0  0  0  0  0  0  0  0  0
   29.6651    9.1712    7.1116 C   0  0  0  0  0  0  0  0  0  0  0  0
   30.5489    8.7037    7.0941 O   0  0  0  0  0  0  0  0  0  0  0  0
   28.8867    8.7517    7.5785 C   0  0  0  0  0  0  0  0  0  0  0  0
   31.3040    9.1107    6.6412 H   0  0  0  0  0  0  0  0  0  0  0  0
   30.8297   11.6326    4.1481 C   0  0  0  0  0  0  0  0  0  0  0  0
   31.1777   12.5505    4.3387 C   0  0  0  0  0  0  0  0  0  0  0  0
   30.8500   13.3304    3.8054 C   0  0  0  0  0  0  0  0  0  0  0  0
   31.1605   13.4578    2.8634 O   0  0  0  0  0  0  0  0  0  0  0  0
   30.2117   13.9828    4.2140 N   0  0  0  0  0  0  0  0  0  0  0  0
   29.9060   13.8573    5.1414 H   0  0  0  0  0  0  0  0  0  0  0  0
   29.8891   14.7505    3.6889 H   0  0  0  0  0  0  0  0  0  0  0  0
   33.2379    9.6388    2.5253 C   0  0  0  0  0  0  0  0  0  0  0  0
   33.1397   10.0779    1.6322 C   0  0  0  0  0  0  0  0  0  0  0  0
   33.9082   10.5791    1.2344 C   0  0  0  0  0  0  0  0  0  0  0  0
   34.8222   10.1733    1.2318 O   0  0  0  0  0  0  0  0  0  0  0  0
   33.7627   11.4861    0.8390 N   0  0  0  0  0  0  0  0  0  0  0  0
   32.8628   11.8855    0.8416 H   0  0  0  0  0  0  0  0  0  0  0  0
   34.5192   11.9795    0.4473 H   0  0  0  0  0  0  0  0  0  0  0  0
   32.1952    5.5576    6.4841 C   0  0  0  0  0  0  0  0  0  0  0  0
   31.4405    5.6751    7.1296 O   0  0  0  0  0  0  0  0  0  0  0  0
   30.8934    4.9142    7.3798 H   0  0  0  0  0  0  0  0  0  0  0  0
   34.0255    7.8476    8.7313 C   0  0  0  0  0  0  0  0  0  0  0  0
   33.2225    8.1795    9.2263 C   0  0  0  0  0  0  0  0  0  0  0  0
   33.0491    9.1262    9.4978 C   0  0  0  0  0  0  0  0  0  0  0  0
   32.1712    9.1547    9.9759 N   0  0  0  0  0  0  0  0  0  0  0  0
   31.8021    8.2256    9.9999 C   0  0  0  0  0  0  0  0  0  0  0  0
   32.4518    7.6230    9.5365 N   0  0  0  0  0  0  0  0  0  0  0  0
   32.3505    6.6521    9.4084 H   0  0  0  0  0  0  0  0  0  0  0  0
 95 96  1  0  0  0
 95 97  1  0  0  0
 95 98  1  0  0  0
 96 91  1  0  0  0
 96 99  1  0  0  0
 91 92  2  0  0  0
 91 93  1  0  0  0
 93 90  1  0  0  0
 93 94  1  0  0  0
 90103  1  0  0  0
 90 86  1  0  0  0
103104  1  0  0  0
104105  1  0  0  0
105106  2  0  0  0
105107  1  0  0  0
107108  1  0  0  0
107109  1  0  0  0
 86 87  2  0  0  0
 86 88  1  0  0  0
 88 85  1  0  0  0
 88 89  1  0  0  0
 85110  1  0  0  0
 85 81  1  0  0  0
110111  1  0  0  0
111112  1  0  0  0
112113  2  0  0  0
112114  1  0  0  0
114115  1  0  0  0
114116  1  0  0  0
 81 82  2  0  0  0
 81 83  1  0  0  0
 83 79  1  0  0  0
 83 84  1  0  0  0
 79 80  1  0  0  0
 79 75  1  0  0  0
 75 76  2  0  0  0
 75 77  1  0  0  0
 77 74  1  0  0  0
 77 78  1  0  0  0
 74117  1  0  0  0
 74 70  1  0  0  0
117118  1  0  0  0
118119  1  0  0  0
 70 71  2  0  0  0
 70 72  1  0  0  0
 72 69  1  0  0  0
 72 73  1  0  0  0
 69120  1  0  0  0
 69 65  1  0  0  0
120121  1  0  0  0
121125  1  0  0  0
121122  2  0  0  0
122123  1  0  0  0
123124  2  0  0  0
124125  1  0  0  0
125126  1  0  0  0
 65 66  2  0  0  0
 65 67  1  0  0  0
 67  1  1  0  0  0
 67 68  1  0  0  0
  1  2  1  0  0  0
  1 10  1  0  0  0
  2  8  2  0  0  0
  2  3  1  0  0  0
  3  4  2  0  0  0
  4  5  1  0  0  0
  5  6  1  0  0  0
  5  7  2  0  0  0
  6  9  1  0  0  0
  7  8  1  0  0  0
 10 11  2  0  0  0
 10 12  1  0  0  0
 12 14  1  0  0  0
 12 13  1  0  0  0
 14 58  1  0  0  0
 14 15  1  0  0  0
 58 59  1  0  0  0
 59 60  1  0  0  0
 60 61  1  0  0  0
 61 62  1  0  0  0
 62 63  1  0  0  0
 62 64  1  0  0  0
 15 16  2  0  0  0
 15 17  1  0  0  0
 17 19  1  0  0  0
 17 18  1  0  0  0
 19 51  1  0  0  0
 19 20  1  0  0  0
 51 52  1  0  0  0
 52 53  1  0  0  0
 53 54  2  0  0  0
 53 55  1  0  0  0
 55 56  1  0  0  0
 55 57  1  0  0  0
 20 21  2  0  0  0
 20 22  1  0  0  0
 22 24  1  0  0  0
 22 23  1  0  0  0
 24 44  1  0  0  0
 24 25  1  0  0  0
 44 45  1  0  0  0
 45 49  1  0  0  0
 45 46  2  0  0  0
 46 47  1  0  0  0
 47 48  2  0  0  0
 48 49  1  0  0  0
 49 50  1  0  0  0
 25 26  2  0  0  0
 25 27  1  0  0  0
 27 29  1  0  0  0
 27 28  1  0  0  0
 29 41  1  0  0  0
 29 30  1  0  0  0
 41 42  1  0  0  0
 42 43  1  0  0  0
 30 31  2  0  0  0
 30 32  1  0  0  0
 32 36  1  0  0  0
 32 33  1  0  0  0
 33 34  1  0  0  0
 34 35  1  0  0  0
 35 36  1  0  0  0
 36 37  1  0  0  0
 37 38  1  0  0  0
 37 39  2  0  0  0
 38 40  1  0  0  0
 99100  1  0  0  0
 99101  1  0  0  0
100102  1  0  0  0
M  END
> <minimizedAffinity>
-4.64522

$$$$



126129  0  0  0  0  0  0  0  0999 V2000
   33.6334    7.6077    7.8897 C   0  0  0  0  0  0  0  0  0  0  0  0
   33.6898    6.9661    8.6547 C   0  0  0  0  0  0  0  0  0  0  0  0
   33.0728    7.0635    9.4355 C   0  0  0  0  0  0  0  0  0  0  0  0
   33.1292    6.4219   10.2005 C   0  0  0  0  0  0  0  0  0  0  0  0
   33.8027    5.6829   10.1846 C   0  0  0  0  0  0  0  0  0  0  0  0
   33.8592    5.0413   10.9496 O   0  0  0  0  0  0  0  0  0  0  0  0
   34.4198    5.5855    9.4038 C   0  0  0  0  0  0  0  0  0  0  0  0
   34.3634    6.2271    8.6388 C   0  0  0  0  0  0  0  0  0  0  0  0
   33.2809    5.1326   11.6812 H   0  0  0  0  0  0  0  0  0  0  0  0
   34.0988    8.4911    7.9428 C   0  0  0  0  0  0  0  0  0  0  0  0
   34.9034    8.5982    8.5269 O   0  0  0  0  0  0  0  0  0  0  0  0
   33.7597    9.2676    7.4117 N   0  0  0  0  0  0  0  0  0  0  0  0
   32.9675    9.1623    6.8366 H   0  0  0  0  0  0  0  0  0  0  0  0
   34.2251   10.1512    7.4647 C   0  0  0  0  0  0  0  0  0  0  0  0
   35.0156   10.3358    6.8808 C   0  0  0  0  0  0  0  0  0  0  0  0
   35.7477   10.9349    7.2051 O   0  0  0  0  0  0  0  0  0  0  0  0
   35.0741    9.9212    5.9727 N   0  0  0  0  0  0  0  0  0  0  0  0
   34.3534    9.3314    5.6535 H   0  0  0  0  0  0  0  0  0  0  0  0
   35.8646   10.1058    5.3888 C   0  0  0  0  0  0  0  0  0  0  0  0
   35.7772   10.7280    4.6109 C   0  0  0  0  0  0  0  0  0  0  0  0
   35.1683   10.4973    3.8520 O   0  0  0  0  0  0  0  0  0  0  0  0
   36.2988   11.5811    4.5918 N   0  0  0  0  0  0  0  0  0  0  0  0
   36.8983   11.8083    5.3390 H   0  0  0  0  0  0  0  0  0  0  0  0
   36.2114   12.2033    3.8139 C   0  0  0  0  0  0  0  0  0  0  0  0
   36.8724   12.1630    3.0647 C   0  0  0  0  0  0  0  0  0  0  0  0
   37.8412   12.3346    3.2429 O   0  0  0  0  0  0  0  0  0  0  0  0
   36.5645   11.9509    2.1372 N   0  0  0  0  0  0  0  0  0  0  0  0
   35.6106   11.7819    1.9618 H   0  0  0  0  0  0  0  0  0  0  0  0
   37.2255   11.9106    1.3879 C   0  0  0  0  0  0  0  0  0  0  0  0
   37.2911   12.6674    0.7377 C   0  0  0  0  0  0  0  0  0  0  0  0
   38.1257   13.2163    0.6918 O   0  0  0  0  0  0  0  0  0  0  0  0
   36.5219   12.8754    0.1332 N   0  0  0  0  0  0  0  0  0  0  0  0
   35.6495   12.3877    0.1032 C   0  0  0  0  0  0  0  0  0  0  0  0
   35.0787   12.8185   -0.5959 C   0  0  0  0  0  0  0  0  0  0  0  0
   35.5984   13.5724   -0.9978 C   0  0  0  0  0  0  0  0  0  0  0  0
   36.4904   13.6075   -0.5472 C   0  0  0  0  0  0  0  0  0  0  0  0
   37.2223   14.2602   -0.7426 C   0  0  0  0  0  0  0  0  0  0  0  0
   37.9212   14.0389   -1.4227 O   0  0  0  0  0  0  0  0  0  0  0  0
   37.2554   15.1344   -0.2579 O   0  0  0  0  0  0  0  0  0  0  0  0
   37.8903   13.2199   -1.8768 H   0  0  0  0  0  0  0  0  0  0  0  0
   37.8210   11.1133    1.2889 C   0  0  0  0  0  0  0  0  0  0  0  0
   37.4331   10.2284    1.0312 S   0  0  0  0  0  0  0  0  0  0  0  0
   36.0956   10.1091    0.8154 H   0  0  0  0  0  0  0  0  0  0  0  0
   35.4629   12.8660    3.7853 C   0  0  0  0  0  0  0  0  0  0  0  0
   35.4373   13.6199    4.4417 C   0  0  0  0  0  0  0  0  0  0  0  0
   34.7685   13.7377    5.1758 C   0  0  0  0  0  0  0  0  0  0  0  0
   34.9937   14.5790    5.6671 N   0  0  0  0  0  0  0  0  0  0  0  0
   35.8018   14.9814    5.2366 C   0  0  0  0  0  0  0  0  0  0  0  0
   36.0758   14.3885    4.4792 N   0  0  0  0  0  0  0  0  0  0  0  0
   36.8402   14.5359    3.8765 H   0  0  0  0  0  0  0  0  0  0  0  0
   36.7426    9.6681    5.5828 C   0  0  0  0  0  0  0  0  0  0  0  0
   36.9814    8.8064    5.1352 C   0  0  0  0  0  0  0  0  0  0  0  0
   37.7635    8.2744    5.4597 C   0  0  0  0  0  0  0  0  0  0  0  0
   37.8360    8.0311    6.4270 O   0  0  0  0  0  0  0  0  0  0  0  0
   38.4731    7.9856    4.8169 N   0  0  0  0  0  0  0  0  0  0  0  0
   38.4016    8.2252    3.8647 H   0  0  0  0  0  0  0  0  0  0  0  0
   39.2431    7.4619    5.1364 H   0  0  0  0  0  0  0  0  0  0  0  0
   33.8999   10.8501    8.1017 C   0  0  0  0  0  0  0  0  0  0  0  0
   32.9477   11.1539    8.0672 C   0  0  0  0  0  0  0  0  0  0  0  0
   32.6071   11.8089    8.7417 C   0  0  0  0  0  0  0  0  0  0  0  0
   31.6645   11.7447    9.0693 C   0  0  0  0  0  0  0  0  0  0  0  0
   31.4751   11.3711    9.9774 N   0  0  0  0  0  0  0  0  0  0  0  0
   32.2434   11.0555   10.5695 H   0  0  0  0  0  0  0  0  0  0  0  0
   30.5136   11.3057   10.3115 H   0  0  0  0  0  0  0  0  0  0  0  0
   33.5825    7.0045    6.2669 C   0  0  0  0  0  0  0  0  0  0  0  0
   34.5753    6.8852    6.2800 O   0  0  0  0  0  0  0  0  0  0  0  0
   33.1116    7.3658    7.0717 N   0  0  0  0  0  0  0  0  0  0  0  0
   32.1342    7.4832    7.0587 H   0  0  0  0  0  0  0  0  0  0  0  0
   33.0607    6.7626    5.4488 C   0  0  0  0  0  0  0  0  0  0  0  0
   31.9996    7.9639    4.7924 C   0  0  0  0  0  0  0  0  0  0  0  0
   32.7842    8.4401    4.3955 O   0  0  0  0  0  0  0  0  0  0  0  0
   32.1378    7.1252    5.3191 N   0  0  0  0  0  0  0  0  0  0  0  0
   31.3653    6.6563    5.7099 H   0  0  0  0  0  0  0  0  0  0  0  0
   31.0767    8.3265    4.6627 C   0  0  0  0  0  0  0  0  0  0  0  0
   30.2150    9.1877    5.8939 C   0  0  0  0  0  0  0  0  0  0  0  0
   30.6477   10.0401    5.6005 O   0  0  0  0  0  0  0  0  0  0  0  0
   30.4295    8.3309    5.4250 N   0  0  0  0  0  0  0  0  0  0  0  0
   30.0034    7.4916    5.7138 H   0  0  0  0  0  0  0  0  0  0  0  0
   29.5678    9.1920    6.6562 C   0  0  0  0  0  0  0  0  0  0  0  0
   29.0880   10.0349    6.8999 C   0  0  0  0  0  0  0  0  0  0  0  0
   29.8767    8.1973    8.0399 C   0  0  0  0  0  0  0  0  0  0  0  0
   30.5205    8.8794    8.3866 O   0  0  0  0  0  0  0  0  0  0  0  0
   29.4003    8.3536    7.1747 N   0  0  0  0  0  0  0  0  0  0  0  0
   28.7665    7.6820    6.8335 H   0  0  0  0  0  0  0  0  0  0  0  0
   29.7093    7.3588    8.5586 C   0  0  0  0  0  0  0  0  0  0  0  0
   28.8510    7.3620   10.0630 C   0  0  0  0  0  0  0  0  0  0  0  0
   27.9831    7.3229    9.5679 O   0  0  0  0  0  0  0  0  0  0  0  0
   29.7141    7.3799    9.5584 N   0  0  0  0  0  0  0  0  0  0  0  0
   30.5686    7.4184   10.0458 H   0  0  0  0  0  0  0  0  0  0  0  0
   28.8558    7.3831   11.0628 C   0  0  0  0  0  0  0  0  0  0  0  0
   29.1306    5.9724   12.0293 C   0  0  0  0  0  0  0  0  0  0  0  0
   30.1176    6.1167   11.9593 O   0  0  0  0  0  0  0  0  0  0  0  0
   28.4997    6.6056   11.5810 N   0  0  0  0  0  0  0  0  0  0  0  0
   27.5279    6.4635   11.6499 H   0  0  0  0  0  0  0  0  0  0  0  0
   28.6860    4.3002   12.1095 N   0  0  0  0  0  0  0  0  0  0  0  0
   28.7744    5.1948   12.5476 C   0  0  0  0  0  0  0  0  0  0  0  0
   28.3227    3.5071   12.6381 H   0  0  0  0  0  0  0  0  0  0  0  0
   28.9591    4.1809   11.1340 H   0  0  0  0  0  0  0  0  0  0  0  0
   28.5067    5.3118   13.5040 C   0  0  0  0  0  0  0  0  0  0  0  0
   29.1468    5.7177   14.1563 O   0  0  0  0  0  0  0  0  0  0  0  0
   27.5989    5.0229   13.8080 C   0  0  0  0  0  0  0  0  0  0  0  0
   30.0274    5.9979   13.8614 H   0  0  0  0  0  0  0  0  0  0  0  0
   29.2167    8.1818   11.5443 C   0  0  0  0  0  0  0  0  0  0  0  0
   28.5932    8.8905   11.8743 C   0  0  0  0  0  0  0  0  0  0  0  0
   28.9584    9.7274   12.2823 C   0  0  0  0  0  0  0  0  0  0  0  0
   29.3193    9.7128   13.2147 O   0  0  0  0  0  0  0  0  0  0  0  0
   28.9627   10.5787   11.7577 N   0  0  0  0  0  0  0  0  0  0  0  0
   28.6074   10.5930   10.8397 H   0  0  0  0  0  0  0  0  0  0  0  0
   29.3222   11.4025   12.1593 H   0  0  0  0  0  0  0  0  0  0  0  0
   29.5371    6.4992    8.0775 C   0  0  0  0  0  0  0  0  0  0  0  0
   30.2258    5.7743    8.0870 C   0  0  0  0  0  0  0  0  0  0  0  0
   30.2011    5.0521    7.3958 C   0  0  0  0  0  0  0  0  0  0  0  0
   30.0281    5.2823    6.4381 O   0  0  0  0  0  0  0  0  0  0  0  0
   30.3495    4.0996    7.6622 N   0  0  0  0  0  0  0  0  0  0  0  0
   30.5198    3.8730    8.6050 H   0  0  0  0  0  0  0  0  0  0  0  0
   30.3251    3.3886    6.9816 H   0  0  0  0  0  0  0  0  0  0  0  0
   30.8011    8.6847    3.7707 C   0  0  0  0  0  0  0  0  0  0  0  0
   30.4632    8.0623    3.0647 O   0  0  0  0  0  0  0  0  0  0  0  0
   30.1958    8.4098    2.1994 H   0  0  0  0  0  0  0  0  0  0  0  0
   33.4618    6.1581    4.7605 C   0  0  0  0  0  0  0  0  0  0  0  0
   33.0679    5.2532    4.5993 C   0  0  0  0  0  0  0  0  0  0  0  0
   32.6128    4.9510    3.7617 C   0  0  0  0  0  0  0  0  0  0  0  0
   32.3235    4.0026    3.8920 N   0  0  0  0  0  0  0  0  0  0  0  0
   32.6000    3.7187    4.8102 C   0  0  0  0  0  0  0  0  0  0  0  0
   33.0600    4.4917    5.2472 N   0  0  0  0  0  0  0  0  0  0  0  0
   33.4386    4.5011    6.1560 H   0  0  0  0  0  0  0  0  0  0  0  0
 95 96  1  0  0  0
 95 97  1  0  0  0
 95 98  1  0  0  0
 96 91  1  0  0  0
 96 99  1  0  0  0
 91 92  2  0  0  0
 91 93  1  0  0  0
 93 90  1  0  0  0
 93 94  1  0  0  0
 90103  1  0  0  0
 90 86  1  0  0  0
103104  1  0  0  0
104105  1  0  0  0
105106  2  0  0  0
105107  1  0  0  0
107108  1  0  0  0
107109  1  0  0  0
 86 87  2  0  0  0
 86 88  1  0  0  0
 88 85  1  0  0  0
 88 89  1  0  0  0
 85110  1  0  0  0
 85 81  1  0  0  0
110111  1  0  0  0
111112  1  0  0  0
112113  2  0  0  0
112114  1  0  0  0
114115  1  0  0  0
114116  1  0  0  0
 81 82  2  0  0  0
 81 83  1  0  0  0
 83 79  1  0  0  0
 83 84  1  0  0  0
 79 80  1  0  0  0
 79 75  1  0  0  0
 75 76  2  0  0  0
 75 77  1  0  0  0
 77 74  1  0  0  0
 77 78  1  0  0  0
 74117  1  0  0  0
 74 70  1  0  0  0
117118  1  0  0  0
118119  1  0  0  0
 70 71  2  0  0  0
 70 72  1  0  0  0
 72 69  1  0  0  0
 72 73  1  0  0  0
 69120  1  0  0  0
 69 65  1  0  0  0
120121  1  0  0  0
121125  1  0  0  0
121122  2  0  0  0
122123  1  0  0  0
123124  2  0  0  0
124125  1  0  0  0
125126  1  0  0  0
 65 66  2  0  0  0
 65 67  1  0  0  0
 67  1  1  0  0  0
 67 68  1  0  0  0
  1  2  1  0  0  0
  1 10  1  0  0  0
  2  8  2  0  0  0
  2  3  1  0  0  0
  3  4  2  0  0  0
  4  5  1  0  0  0
  5  6  1  0  0  0
  5  7  2  0  0  0
  6  9  1  0  0  0
  7  8  1  0  0  0
 10 11  2  0  0  0
 10 12  1  0  0  0
 12 14  1  0  0  0
 12 13  1  0  0  0
 14 58  1  0  0  0
 14 15  1  0  0  0
 58 59  1  0  0  0
 59 60  1  0  0  0
 60 61  1  0  0  0
 61 62  1  0  0  0
 62 63  1  0  0  0
 62 64  1  0  0  0
 15 16  2  0  0  0
 15 17  1  0  0  0
 17 19  1  0  0  0
 17 18  1  0  0  0
 19 51  1  0  0  0
 19 20  1  0  0  0
 51 52  1  0  0  0
 52 53  1  0  0  0
 53 54  2  0  0  0
 53 55  1  0  0  0
 55 56  1  0  0  0
 55 57  1  0  0  0
 20 21  2  0  0  0
 20 22  1  0  0  0
 22 24  1  0  0  0
 22 23  1  0  0  0
 24 44  1  0  0  0
 24 25  1  0  0  0
 44 45  1  0  0  0
 45 49  1  0  0  0
 45 46  2  0  0  0
 46 47  1  0  0  0
 47 48  2  0  0  0
 48 49  1  0  0  0
 49 50  1  0  0  0
 25 26  2  0  0  0
 25 27  1  0  0  0
 27 29  1  0  0  0
 27 28  1  0  0  0
 29 41  1  0  0  0
 29 30  1  0  0  0
 41 42  1  0  0  0
 42 43  1  0  0  0
 30 31  2  0  0  0
 30 32  1  0  0  0
 32 36  1  0  0  0
 32 33  1  0  0  0
 33 34  1  0  0  0
 34 35  1  0  0  0
 35 36  1  0  0  0
 36 37  1  0  0  0
 37 38  1  0  0  0
 37 39  2  0  0  0
 38 40  1  0  0  0
 99100  1  0  0  0
 99101  1  0  0  0
100102  1  0  0  0
M  END
> <minimizedAffinity>
-4.52012

$$$$



126129  0  0  0  0  0  0  0  0999 V2000
   32.3516    7.0065    8.6318 C   0  0  0  0  0  0  0  0  0  0  0  0
   32.1158    6.3543    9.3523 C   0  0  0  0  0  0  0  0  0  0  0  0
   31.1578    6.2025    9.5954 C   0  0  0  0  0  0  0  0  0  0  0  0
   30.9220    5.5503   10.3159 C   0  0  0  0  0  0  0  0  0  0  0  0
   31.6444    5.0500   10.7934 C   0  0  0  0  0  0  0  0  0  0  0  0
   31.4086    4.3979   11.5139 O   0  0  0  0  0  0  0  0  0  0  0  0
   32.6024    5.2019   10.5503 C   0  0  0  0  0  0  0  0  0  0  0  0
   32.8382    5.8540    9.8298 C   0  0  0  0  0  0  0  0  0  0  0  0
   30.5109    4.2557   11.7416 H   0  0  0  0  0  0  0  0  0  0  0  0
   32.8795    7.8265    8.8528 C   0  0  0  0  0  0  0  0  0  0  0  0
   33.5967    7.7870    9.5485 O   0  0  0  0  0  0  0  0  0  0  0  0
   32.6901    8.6860    8.3781 N   0  0  0  0  0  0  0  0  0  0  0  0
   31.9839    8.7249    7.6933 H   0  0  0  0  0  0  0  0  0  0  0  0
   33.2180    9.5061    8.5991 C   0  0  0  0  0  0  0  0  0  0  0  0
   34.0928    9.6751    8.1452 C   0  0  0  0  0  0  0  0  0  0  0  0
   34.8884    9.9565    8.6817 O   0  0  0  0  0  0  0  0  0  0  0  0
   34.1721    9.5626    7.1547 N   0  0  0  0  0  0  0  0  0  0  0  0
   33.3888    9.2855    6.6265 H   0  0  0  0  0  0  0  0  0  0  0  0
   35.0469    9.7315    6.7007 C   0  0  0  0  0  0  0  0  0  0  0  0
   35.1236   10.4576    6.0174 C   0  0  0  0  0  0  0  0  0  0  0  0
   34.8936   10.2715    5.0622 O   0  0  0  0  0  0  0  0  0  0  0  0
   35.4304   11.3697    6.2894 N   0  0  0  0  0  0  0  0  0  0  0  0
   35.6568   11.5529    7.2298 H   0  0  0  0  0  0  0  0  0  0  0  0
   35.5071   12.0958    5.6061 C   0  0  0  0  0  0  0  0  0  0  0  0
   36.4052   12.3559    5.2516 C   0  0  0  0  0  0  0  0  0  0  0  0
   37.0096   12.9357    5.7979 O   0  0  0  0  0  0  0  0  0  0  0  0
   36.6990   12.0361    4.3508 N   0  0  0  0  0  0  0  0  0  0  0  0
   36.1039   11.4653    3.8129 H   0  0  0  0  0  0  0  0  0  0  0  0
   37.5971   12.2962    3.9963 C   0  0  0  0  0  0  0  0  0  0  0  0
   38.3993   11.7381    4.2086 C   0  0  0  0  0  0  0  0  0  0  0  0
   39.1075   12.0924    4.8192 O   0  0  0  0  0  0  0  0  0  0  0  0
   38.4931   10.8256    3.8102 N   0  0  0  0  0  0  0  0  0  0  0  0
   37.8428   10.3846    3.1917 C   0  0  0  0  0  0  0  0  0  0  0  0
   38.2016    9.4804    2.9598 C   0  0  0  0  0  0  0  0  0  0  0  0
   39.0736    9.3627    3.4349 C   0  0  0  0  0  0  0  0  0  0  0  0
   39.2537   10.1941    3.9605 C   0  0  0  0  0  0  0  0  0  0  0  0
   40.0540   10.3641    4.5354 C   0  0  0  0  0  0  0  0  0  0  0  0
   40.0211   10.1549    5.5128 O   0  0  0  0  0  0  0  0  0  0  0  0
   40.8873   10.7433    4.1330 O   0  0  0  0  0  0  0  0  0  0  0  0
   39.2404    9.7996    5.8898 H   0  0  0  0  0  0  0  0  0  0  0  0
   37.6932   13.1145    3.4294 C   0  0  0  0  0  0  0  0  0  0  0  0
   37.1418   13.2168    2.6015 S   0  0  0  0  0  0  0  0  0  0  0  0
   36.2611   12.2432    2.2464 H   0  0  0  0  0  0  0  0  0  0  0  0
   34.6857   12.5618    5.2773 C   0  0  0  0  0  0  0  0  0  0  0  0
   34.2667   13.2842    5.8272 C   0  0  0  0  0  0  0  0  0  0  0  0
   33.5618   13.1577    6.5252 C   0  0  0  0  0  0  0  0  0  0  0  0
   33.3384   14.0553    6.9052 N   0  0  0  0  0  0  0  0  0  0  0  0
   33.9053   14.7367    6.4420 C   0  0  0  0  0  0  0  0  0  0  0  0
   34.4789   14.2601    5.7758 N   0  0  0  0  0  0  0  0  0  0  0  0
   35.1371   14.6783    5.1748 H   0  0  0  0  0  0  0  0  0  0  0  0
   35.8450    9.1743    6.9301 C   0  0  0  0  0  0  0  0  0  0  0  0
   36.1332    8.4379    6.3181 C   0  0  0  0  0  0  0  0  0  0  0  0
   36.9106    7.8588    6.5640 C   0  0  0  0  0  0  0  0  0  0  0  0
   36.7875    7.1036    7.2079 O   0  0  0  0  0  0  0  0  0  0  0  0
   37.8109    8.0350    6.1661 N   0  0  0  0  0  0  0  0  0  0  0  0
   37.9319    8.7785    5.5322 H   0  0  0  0  0  0  0  0  0  0  0  0
   38.5762    7.4649    6.4081 H   0  0  0  0  0  0  0  0  0  0  0  0
   32.8710   10.1573    9.2741 C   0  0  0  0  0  0  0  0  0  0  0  0
   32.0264   10.6616    9.0941 C   0  0  0  0  0  0  0  0  0  0  0  0
   31.6002   11.1991    9.8218 C   0  0  0  0  0  0  0  0  0  0  0  0
   30.6451   11.4837    9.7394 C   0  0  0  0  0  0  0  0  0  0  0  0
   30.1612   11.8470   10.5356 N   0  0  0  0  0  0  0  0  0  0  0  0
   30.6419   11.9274   11.4317 H   0  0  0  0  0  0  0  0  0  0  0  0
   29.1871   12.1373   10.4515 H   0  0  0  0  0  0  0  0  0  0  0  0
   32.7022    6.4526    7.0286 C   0  0  0  0  0  0  0  0  0  0  0  0
   33.6372    6.2345    7.3084 O   0  0  0  0  0  0  0  0  0  0  0  0
   32.0594    6.8385    7.6903 N   0  0  0  0  0  0  0  0  0  0  0  0
   31.1390    7.0532    7.4148 H   0  0  0  0  0  0  0  0  0  0  0  0
   32.4101    6.2847    6.0871 C   0  0  0  0  0  0  0  0  0  0  0  0
   31.8994    7.6510    5.1531 C   0  0  0  0  0  0  0  0  0  0  0  0
   32.8541    7.9185    5.0225 O   0  0  0  0  0  0  0  0  0  0  0  0
   31.6774    6.8341    5.6854 N   0  0  0  0  0  0  0  0  0  0  0  0
   30.7376    6.5706    5.8139 H   0  0  0  0  0  0  0  0  0  0  0  0
   31.1668    8.2004    4.7514 C   0  0  0  0  0  0  0  0  0  0  0  0
   30.4870    9.3860    5.8154 C   0  0  0  0  0  0  0  0  0  0  0  0
   31.3200    9.9337    5.7373 O   0  0  0  0  0  0  0  0  0  0  0  0
   30.4104    8.5194    5.3224 N   0  0  0  0  0  0  0  0  0  0  0  0
   29.5903    7.9801    5.3993 H   0  0  0  0  0  0  0  0  0  0  0  0
   29.7306    9.7050    6.3865 C   0  0  0  0  0  0  0  0  0  0  0  0
   29.3574   10.6233    6.2548 C   0  0  0  0  0  0  0  0  0  0  0  0
   28.5484    9.3982    7.6145 C   0  0  0  0  0  0  0  0  0  0  0  0
   28.1326   10.2902    7.4370 O   0  0  0  0  0  0  0  0  0  0  0  0
   29.3474    9.1056    7.0892 N   0  0  0  0  0  0  0  0  0  0  0  0
   29.7568    8.2275    7.2639 H   0  0  0  0  0  0  0  0  0  0  0  0
   28.1651    8.7988    8.3173 C   0  0  0  0  0  0  0  0  0  0  0  0
   27.5070    7.2991    7.7538 C   0  0  0  0  0  0  0  0  0  0  0  0
   26.7136    7.7851    7.3872 O   0  0  0  0  0  0  0  0  0  0  0  0
   28.2327    7.8060    8.2189 N   0  0  0  0  0  0  0  0  0  0  0  0
   29.0138    7.3276    8.5798 H   0  0  0  0  0  0  0  0  0  0  0  0
   27.5745    6.3063    7.6554 C   0  0  0  0  0  0  0  0  0  0  0  0
   28.3843    5.6318    6.2809 C   0  0  0  0  0  0  0  0  0  0  0  0
   29.2670    5.7892    6.7236 O   0  0  0  0  0  0  0  0  0  0  0  0
   27.5381    5.8903    6.7468 N   0  0  0  0  0  0  0  0  0  0  0  0
   26.6690    5.7352    6.3109 H   0  0  0  0  0  0  0  0  0  0  0  0
   28.7809    5.6728    4.5953 N   0  0  0  0  0  0  0  0  0  0  0  0
   28.3478    5.2157    5.3722 C   0  0  0  0  0  0  0  0  0  0  0  0
   28.7437    5.2485    3.6685 H   0  0  0  0  0  0  0  0  0  0  0  0
   29.2598    6.5633    4.7297 H   0  0  0  0  0  0  0  0  0  0  0  0
   27.8783    4.3427    5.2405 C   0  0  0  0  0  0  0  0  0  0  0  0
   28.1844    3.5304    5.7369 O   0  0  0  0  0  0  0  0  0  0  0  0
   27.1027    4.2820    4.6123 C   0  0  0  0  0  0  0  0  0  0  0  0
   28.9369    3.5894    6.3463 H   0  0  0  0  0  0  0  0  0  0  0  0
   27.6786    5.7294    8.4655 C   0  0  0  0  0  0  0  0  0  0  0  0
   26.8936    5.2236    8.8233 C   0  0  0  0  0  0  0  0  0  0  0  0
   27.0331    4.4856    9.4836 C   0  0  0  0  0  0  0  0  0  0  0  0
   27.5402    3.6658    9.2176 O   0  0  0  0  0  0  0  0  0  0  0  0
   26.6655    4.5675   10.4100 N   0  0  0  0  0  0  0  0  0  0  0  0
   26.1664    5.3746   10.6719 H   0  0  0  0  0  0  0  0  0  0  0  0
   26.8028    3.8411   11.0601 H   0  0  0  0  0  0  0  0  0  0  0  0
   27.7143    9.1923    9.1185 C   0  0  0  0  0  0  0  0  0  0  0  0
   28.1078    9.0611   10.0284 C   0  0  0  0  0  0  0  0  0  0  0  0
   27.5635    9.2636   10.8425 C   0  0  0  0  0  0  0  0  0  0  0  0
   26.6265    8.9219   10.9151 O   0  0  0  0  0  0  0  0  0  0  0  0
   27.9562    9.8077   11.5840 N   0  0  0  0  0  0  0  0  0  0  0  0
   28.8787   10.1440   11.5125 H   0  0  0  0  0  0  0  0  0  0  0  0
   27.4203   10.0070   12.3855 H   0  0  0  0  0  0  0  0  0  0  0  0
   31.1906    8.4308    3.7786 C   0  0  0  0  0  0  0  0  0  0  0  0
   30.8434    7.7812    3.1022 O   0  0  0  0  0  0  0  0  0  0  0  0
   30.8665    8.0048    2.1586 H   0  0  0  0  0  0  0  0  0  0  0  0
   32.8506    5.5673    5.5473 C   0  0  0  0  0  0  0  0  0  0  0  0
   32.3309    4.7589    5.2711 C   0  0  0  0  0  0  0  0  0  0  0  0
   32.1129    4.4927    4.3321 C   0  0  0  0  0  0  0  0  0  0  0  0
   31.5851    3.6440    4.3661 N   0  0  0  0  0  0  0  0  0  0  0  0
   31.4769    3.3856    5.3261 C   0  0  0  0  0  0  0  0  0  0  0  0
   31.9378    4.0747    5.8854 N   0  0  0  0  0  0  0  0  0  0  0  0
   31.9946    4.0788    6.8682 H   0  0  0  0  0  0  0  0  0  0  0  0
 95 96  1  0  0  0
 95 97  1  0  0  0
 95 98  1  0  0  0
 96 91  1  0  0  0
 96 99  1  0  0  0
 91 92  2  0  0  0
 91 93  1  0  0  0
 93 90  1  0  0  0
 93 94  1  0  0  0
 90103  1  0  0  0
 90 86  1  0  0  0
103104  1  0  0  0
104105  1  0  0  0
105106  2  0  0  0
105107  1  0  0  0
107108  1  0  0  0
107109  1  0  0  0
 86 87  2  0  0  0
 86 88  1  0  0  0
 88 85  1  0  0  0
 88 89  1  0  0  0
 85110  1  0  0  0
 85 81  1  0  0  0
110111  1  0  0  0
111112  1  0  0  0
112113  2  0  0  0
112114  1  0  0  0
114115  1  0  0  0
114116  1  0  0  0
 81 82  2  0  0  0
 81 83  1  0  0  0
 83 79  1  0  0  0
 83 84  1  0  0  0
 79 80  1  0  0  0
 79 75  1  0  0  0
 75 76  2  0  0  0
 75 77  1  0  0  0
 77 74  1  0  0  0
 77 78  1  0  0  0
 74117  1  0  0  0
 74 70  1  0  0  0
117118  1  0  0  0
118119  1  0  0  0
 70 71  2  0  0  0
 70 72  1  0  0  0
 72 69  1  0  0  0
 72 73  1  0  0  0
 69120  1  0  0  0
 69 65  1  0  0  0
120121  1  0  0  0
121125  1  0  0  0
121122  2  0  0  0
122123  1  0  0  0
123124  2  0  0  0
124125  1  0  0  0
125126  1  0  0  0
 65 66  2  0  0  0
 65 67  1  0  0  0
 67  1  1  0  0  0
 67 68  1  0  0  0
  1  2  1  0  0  0
  1 10  1  0  0  0
  2  8  2  0  0  0
  2  3  1  0  0  0
  3  4  2  0  0  0
  4  5  1  0  0  0
  5  6  1  0  0  0
  5  7  2  0  0  0
  6  9  1  0  0  0
  7  8  1  0  0  0
 10 11  2  0  0  0
 10 12  1  0  0  0
 12 14  1  0  0  0
 12 13  1  0  0  0
 14 58  1  0  0  0
 14 15  1  0  0  0
 58 59  1  0  0  0
 59 60  1  0  0  0
 60 61  1  0  0  0
 61 62  1  0  0  0
 62 63  1  0  0  0
 62 64  1  0  0  0
 15 16  2  0  0  0
 15 17  1  0  0  0
 17 19  1  0  0  0
 17 18  1  0  0  0
 19 51  1  0  0  0
 19 20  1  0  0  0
 51 52  1  0  0  0
 52 53  1  0  0  0
 53 54  2  0  0  0
 53 55  1  0  0  0
 55 56  1  0  0  0
 55 57  1  0  0  0
 20 21  2  0  0  0
 20 22  1  0  0  0
 22 24  1  0  0  0
 22 23  1  0  0  0
 24 44  1  0  0  0
 24 25  1  0  0  0
 44 45  1  0  0  0
 45 49  1  0  0  0
 45 46  2  0  0  0
 46 47  1  0  0  0
 47 48  2  0  0  0
 48 49  1  0  0  0
 49 50  1  0  0  0
 25 26  2  0  0  0
 25 27  1  0  0  0
 27 29  1  0  0  0
 27 28  1  0  0  0
 29 41  1  0  0  0
 29 30  1  0  0  0
 41 42  1  0  0  0
 42 43  1  0  0  0
 30 31  2  0  0  0
 30 32  1  0  0  0
 32 36  1  0  0  0
 32 33  1  0  0  0
 33 34  1  0  0  0
 34 35  1  0  0  0
 35 36  1  0  0  0
 36 37  1  0  0  0
 37 38  1  0  0  0
 37 39  2  0  0  0
 38 40  1  0  0  0
 99100  1  0  0  0
 99101  1  0  0  0
100102  1  0  0  0
M  END
> <minimizedAffinity>
-4.48093

$$$$



126129  0  0  0  0  0  0  0  0999 V2000
   34.5576    5.4102    1.7593 C   0  0  0  0  0  0  0  0  0  0  0  0
   34.3614    4.7541    1.0306 C   0  0  0  0  0  0  0  0  0  0  0  0
   33.8696    5.0490    0.2114 C   0  0  0  0  0  0  0  0  0  0  0  0
   33.6734    4.3928   -0.5174 C   0  0  0  0  0  0  0  0  0  0  0  0
   33.9691    3.4418   -0.4268 C   0  0  0  0  0  0  0  0  0  0  0  0
   33.7729    2.7857   -1.1556 O   0  0  0  0  0  0  0  0  0  0  0  0
   34.4610    3.1469    0.3924 C   0  0  0  0  0  0  0  0  0  0  0  0
   34.6571    3.8030    1.1211 C   0  0  0  0  0  0  0  0  0  0  0  0
   33.3121    3.0620   -1.9232 H   0  0  0  0  0  0  0  0  0  0  0  0
   33.8092    5.8002    2.2957 C   0  0  0  0  0  0  0  0  0  0  0  0
   33.1017    6.3445    1.8450 O   0  0  0  0  0  0  0  0  0  0  0  0
   33.7683    5.6458    3.2829 N   0  0  0  0  0  0  0  0  0  0  0  0
   34.4648    5.1100    3.7266 H   0  0  0  0  0  0  0  0  0  0  0  0
   33.0198    6.0358    3.8194 C   0  0  0  0  0  0  0  0  0  0  0  0
   33.1297    6.9290    4.2554 C   0  0  0  0  0  0  0  0  0  0  0  0
   33.9877    7.1591    4.7145 O   0  0  0  0  0  0  0  0  0  0  0  0
   32.3815    7.5921    4.2323 N   0  0  0  0  0  0  0  0  0  0  0  0
   31.5368    7.3656    3.7803 H   0  0  0  0  0  0  0  0  0  0  0  0
   32.4914    8.4853    4.6683 C   0  0  0  0  0  0  0  0  0  0  0  0
   32.0276    8.6802    5.5325 C   0  0  0  0  0  0  0  0  0  0  0  0
   32.4962    9.2031    6.2446 O   0  0  0  0  0  0  0  0  0  0  0  0
   31.0952    8.3523    5.6848 N   0  0  0  0  0  0  0  0  0  0  0  0
   30.6339    7.8376    4.9837 H   0  0  0  0  0  0  0  0  0  0  0  0
   30.6314    8.5472    6.5490 C   0  0  0  0  0  0  0  0  0  0  0  0
   30.6442    7.8721    7.2866 C   0  0  0  0  0  0  0  0  0  0  0  0
   30.3002    6.9474    7.1239 O   0  0  0  0  0  0  0  0  0  0  0  0
   31.0009    8.1218    8.1868 N   0  0  0  0  0  0  0  0  0  0  0  0
   31.3395    9.0322    8.3469 H   0  0  0  0  0  0  0  0  0  0  0  0
   31.0136    7.4466    8.9244 C   0  0  0  0  0  0  0  0  0  0  0  0
   31.8735    7.0085    9.1864 C   0  0  0  0  0  0  0  0  0  0  0  0
   31.9684    6.0151    9.1218 O   0  0  0  0  0  0  0  0  0  0  0  0
   32.6384    7.5637    9.5130 N   0  0  0  0  0  0  0  0  0  0  0  0
   32.6419    8.5587    9.6128 C   0  0  0  0  0  0  0  0  0  0  0  0
   33.5398    8.8313    9.9586 C   0  0  0  0  0  0  0  0  0  0  0  0
   34.0910    8.0048   10.0726 C   0  0  0  0  0  0  0  0  0  0  0  0
   33.5339    7.2214    9.7972 C   0  0  0  0  0  0  0  0  0  0  0  0
   33.8218    6.2638    9.8046 C   0  0  0  0  0  0  0  0  0  0  0  0
   33.6888    5.7080   10.6253 O   0  0  0  0  0  0  0  0  0  0  0  0
   34.2429    5.8619    8.9914 O   0  0  0  0  0  0  0  0  0  0  0  0
   33.2943    6.0846   11.3872 H   0  0  0  0  0  0  0  0  0  0  0  0
   30.1664    7.2097    9.4000 C   0  0  0  0  0  0  0  0  0  0  0  0
   29.8045    7.8155   10.1086 S   0  0  0  0  0  0  0  0  0  0  0  0
   30.4644    8.9616   10.4254 H   0  0  0  0  0  0  0  0  0  0  0  0
   30.1550    9.4172    6.6756 C   0  0  0  0  0  0  0  0  0  0  0  0
   29.1914    9.5012    6.4218 C   0  0  0  0  0  0  0  0  0  0  0  0
   28.4815    9.9629    6.9536 C   0  0  0  0  0  0  0  0  0  0  0  0
   27.6199    9.8853    6.4521 N   0  0  0  0  0  0  0  0  0  0  0  0
   27.7972    9.3755    5.6102 C   0  0  0  0  0  0  0  0  0  0  0  0
   28.7685    9.1381    5.5915 N   0  0  0  0  0  0  0  0  0  0  0  0
   29.2277    8.6353    4.8805 H   0  0  0  0  0  0  0  0  0  0  0  0
   33.0650    9.1836    4.2401 C   0  0  0  0  0  0  0  0  0  0  0  0
   32.6830    9.7811    3.5351 C   0  0  0  0  0  0  0  0  0  0  0  0
   33.2553   10.4825    3.1103 C   0  0  0  0  0  0  0  0  0  0  0  0
   34.2507   10.3860    3.1147 O   0  0  0  0  0  0  0  0  0  0  0  0
   32.8323   11.2805    2.6810 N   0  0  0  0  0  0  0  0  0  0  0  0
   31.8523   11.3755    2.6766 H   0  0  0  0  0  0  0  0  0  0  0  0
   33.3957   11.9711    2.2627 H   0  0  0  0  0  0  0  0  0  0  0  0
   32.1615    5.5326    3.9198 C   0  0  0  0  0  0  0  0  0  0  0  0
   32.1103    4.7505    4.5410 C   0  0  0  0  0  0  0  0  0  0  0  0
   31.2287    4.4712    4.9215 C   0  0  0  0  0  0  0  0  0  0  0  0
   31.1962    3.8448    5.7004 C   0  0  0  0  0  0  0  0  0  0  0  0
   31.1040    4.2055    6.6285 N   0  0  0  0  0  0  0  0  0  0  0  0
   31.0432    5.2122    6.7808 H   0  0  0  0  0  0  0  0  0  0  0  0
   31.0708    3.5666    7.4229 H   0  0  0  0  0  0  0  0  0  0  0  0
   35.8825    6.5038    1.5386 C   0  0  0  0  0  0  0  0  0  0  0  0
   35.3182    7.0652    0.9332 O   0  0  0  0  0  0  0  0  0  0  0  0
   35.5022    5.6763    1.9516 N   0  0  0  0  0  0  0  0  0  0  0  0
   36.0576    5.1236    2.5476 H   0  0  0  0  0  0  0  0  0  0  0  0
   36.8270    6.7699    1.7309 C   0  0  0  0  0  0  0  0  0  0  0  0
   37.1167    7.9396    2.9749 C   0  0  0  0  0  0  0  0  0  0  0  0
   36.8519    8.6722    2.3479 O   0  0  0  0  0  0  0  0  0  0  0  0
   37.1043    6.9885    2.6664 N   0  0  0  0  0  0  0  0  0  0  0  0
   37.3651    6.2673    3.2838 H   0  0  0  0  0  0  0  0  0  0  0  0
   37.3940    8.1583    3.9105 C   0  0  0  0  0  0  0  0  0  0  0  0
   36.7595    8.2953    5.5162 C   0  0  0  0  0  0  0  0  0  0  0  0
   37.4487    7.6491    5.8438 O   0  0  0  0  0  0  0  0  0  0  0  0
   36.7321    8.5499    4.5496 N   0  0  0  0  0  0  0  0  0  0  0  0
   36.0535    9.1861    4.2271 H   0  0  0  0  0  0  0  0  0  0  0  0
   36.0975    8.6870    6.1554 C   0  0  0  0  0  0  0  0  0  0  0  0
   35.8400    8.1830    6.9798 C   0  0  0  0  0  0  0  0  0  0  0  0
   35.7436   10.3060    6.6585 C   0  0  0  0  0  0  0  0  0  0  0  0
   36.1985   10.1340    7.5322 O   0  0  0  0  0  0  0  0  0  0  0  0
   35.6931    9.5825    5.9700 N   0  0  0  0  0  0  0  0  0  0  0  0
   35.2452    9.7519    5.1098 H   0  0  0  0  0  0  0  0  0  0  0  0
   35.3391   11.2017    6.4732 C   0  0  0  0  0  0  0  0  0  0  0  0
   36.2898   12.1543    5.3830 C   0  0  0  0  0  0  0  0  0  0  0  0
   36.9967   12.2508    6.0837 O   0  0  0  0  0  0  0  0  0  0  0  0
   35.4611   11.6298    5.5777 N   0  0  0  0  0  0  0  0  0  0  0  0
   34.7652   11.5347    4.8878 H   0  0  0  0  0  0  0  0  0  0  0  0
   36.4118   12.5824    4.4875 C   0  0  0  0  0  0  0  0  0  0  0  0
   35.3717   13.8940    4.0426 C   0  0  0  0  0  0  0  0  0  0  0  0
   35.9187   14.5173    4.6015 O   0  0  0  0  0  0  0  0  0  0  0  0
   35.6183   12.9266    3.9856 N   0  0  0  0  0  0  0  0  0  0  0  0
   35.0799   12.3129    3.4353 H   0  0  0  0  0  0  0  0  0  0  0  0
   34.5981   14.2800    2.5417 N   0  0  0  0  0  0  0  0  0  0  0  0
   34.5782   14.2382    3.5407 C   0  0  0  0  0  0  0  0  0  0  0  0
   33.7888   14.6310    2.0298 H   0  0  0  0  0  0  0  0  0  0  0  0
   35.4278   13.9716    2.0348 H   0  0  0  0  0  0  0  0  0  0  0  0
   33.7648   14.5405    4.0376 C   0  0  0  0  0  0  0  0  0  0  0  0
   33.1618   13.8676    4.4660 O   0  0  0  0  0  0  0  0  0  0  0  0
   33.5545   15.5157    4.1062 C   0  0  0  0  0  0  0  0  0  0  0  0
   33.3658   12.9216    4.3995 H   0  0  0  0  0  0  0  0  0  0  0  0
   37.3272   12.6663    4.0939 C   0  0  0  0  0  0  0  0  0  0  0  0
   37.7445   11.8861    3.6279 C   0  0  0  0  0  0  0  0  0  0  0  0
   38.3384   12.0350    2.8372 C   0  0  0  0  0  0  0  0  0  0  0  0
   38.5737   12.9656    2.5569 O   0  0  0  0  0  0  0  0  0  0  0  0
   38.6969   11.2533    2.3269 N   0  0  0  0  0  0  0  0  0  0  0  0
   38.4652   10.3372    2.6029 H   0  0  0  0  0  0  0  0  0  0  0  0
   39.2815   11.4000    1.5485 H   0  0  0  0  0  0  0  0  0  0  0  0
   34.8128   11.6692    7.1833 C   0  0  0  0  0  0  0  0  0  0  0  0
   33.8233   11.7746    7.0846 C   0  0  0  0  0  0  0  0  0  0  0  0
   33.3425   12.4857    7.5975 C   0  0  0  0  0  0  0  0  0  0  0  0
   33.4460   13.4459    7.3379 O   0  0  0  0  0  0  0  0  0  0  0  0
   32.7584   12.2368    8.3701 N   0  0  0  0  0  0  0  0  0  0  0  0
   32.6565   11.2915    8.6256 H   0  0  0  0  0  0  0  0  0  0  0  0
   32.2851   12.9370    8.8751 H   0  0  0  0  0  0  0  0  0  0  0  0
   38.3333    7.9853    4.2069 C   0  0  0  0  0  0  0  0  0  0  0  0
   39.0784    8.5596    3.8679 O   0  0  0  0  0  0  0  0  0  0  0  0
   39.9895    8.3918    4.1555 H   0  0  0  0  0  0  0  0  0  0  0  0
   37.4943    6.8173    0.9875 C   0  0  0  0  0  0  0  0  0  0  0  0
   38.1280    6.0589    0.8352 C   0  0  0  0  0  0  0  0  0  0  0  0
   39.0551    5.9848    1.2025 C   0  0  0  0  0  0  0  0  0  0  0  0
   39.4460    5.1215    0.8832 N   0  0  0  0  0  0  0  0  0  0  0  0
   38.7603    4.6620    0.3186 C   0  0  0  0  0  0  0  0  0  0  0  0
   37.9458    5.2414    0.2890 N   0  0  0  0  0  0  0  0  0  0  0  0
   37.1111    5.0419   -0.1934 H   0  0  0  0  0  0  0  0  0  0  0  0
 95 96  1  0  0  0
 95 97  1  0  0  0
 95 98  1  0  0  0
 96 91  1  0  0  0
 96 99  1  0  0  0
 91 92  2  0  0  0
 91 93  1  0  0  0
 93 90  1  0  0  0
 93 94  1  0  0  0
 90103  1  0  0  0
 90 86  1  0  0  0
103104  1  0  0  0
104105  1  0  0  0
105106  2  0  0  0
105107  1  0  0  0
107108  1  0  0  0
107109  1  0  0  0
 86 87  2  0  0  0
 86 88  1  0  0  0
 88 85  1  0  0  0
 88 89  1  0  0  0
 85110  1  0  0  0
 85 81  1  0  0  0
110111  1  0  0  0
111112  1  0  0  0
112113  2  0  0  0
112114  1  0  0  0
114115  1  0  0  0
114116  1  0  0  0
 81 82  2  0  0  0
 81 83  1  0  0  0
 83 79  1  0  0  0
 83 84  1  0  0  0
 79 80  1  0  0  0
 79 75  1  0  0  0
 75 76  2  0  0  0
 75 77  1  0  0  0
 77 74  1  0  0  0
 77 78  1  0  0  0
 74117  1  0  0  0
 74 70  1  0  0  0
117118  1  0  0  0
118119  1  0  0  0
 70 71  2  0  0  0
 70 72  1  0  0  0
 72 69  1  0  0  0
 72 73  1  0  0  0
 69120  1  0  0  0
 69 65  1  0  0  0
120121  1  0  0  0
121125  1  0  0  0
121122  2  0  0  0
122123  1  0  0  0
123124  2  0  0  0
124125  1  0  0  0
125126  1  0  0  0
 65 66  2  0  0  0
 65 67  1  0  0  0
 67  1  1  0  0  0
 67 68  1  0  0  0
  1  2  1  0  0  0
  1 10  1  0  0  0
  2  8  2  0  0  0
  2  3  1  0  0  0
  3  4  2  0  0  0
  4  5  1  0  0  0
  5  6  1  0  0  0
  5  7  2  0  0  0
  6  9  1  0  0  0
  7  8  1  0  0  0
 10 11  2  0  0  0
 10 12  1  0  0  0
 12 14  1  0  0  0
 12 13  1  0  0  0
 14 58  1  0  0  0
 14 15  1  0  0  0
 58 59  1  0  0  0
 59 60  1  0  0  0
 60 61  1  0  0  0
 61 62  1  0  0  0
 62 63  1  0  0  0
 62 64  1  0  0  0
 15 16  2  0  0  0
 15 17  1  0  0  0
 17 19  1  0  0  0
 17 18  1  0  0  0
 19 51  1  0  0  0
 19 20  1  0  0  0
 51 52  1  0  0  0
 52 53  1  0  0  0
 53 54  2  0  0  0
 53 55  1  0  0  0
 55 56  1  0  0  0
 55 57  1  0  0  0
 20 21  2  0  0  0
 20 22  1  0  0  0
 22 24  1  0  0  0
 22 23  1  0  0  0
 24 44  1  0  0  0
 24 25  1  0  0  0
 44 45  1  0  0  0
 45 49  1  0  0  0
 45 46  2  0  0  0
 46 47  1  0  0  0
 47 48  2  0  0  0
 48 49  1  0  0  0
 49 50  1  0  0  0
 25 26  2  0  0  0
 25 27  1  0  0  0
 27 29  1  0  0  0
 27 28  1  0  0  0
 29 41  1  0  0  0
 29 30  1  0  0  0
 41 42  1  0  0  0
 42 43  1  0  0  0
 30 31  2  0  0  0
 30 32  1  0  0  0
 32 36  1  0  0  0
 32 33  1  0  0  0
 33 34  1  0  0  0
 34 35  1  0  0  0
 35 36  1  0  0  0
 36 37  1  0  0  0
 37 38  1  0  0  0
 37 39  2  0  0  0
 38 40  1  0  0  0
 99100  1  0  0  0
 99101  1  0  0  0
100102  1  0  0  0
M  END
> <minimizedAffinity>
-4.47061

$$$$



126129  0  0  0  0  0  0  0  0999 V2000
   29.5365   10.5144    9.7662 C   0  0  0  0  0  0  0  0  0  0  0  0
   28.7781   11.1657    9.7445 C   0  0  0  0  0  0  0  0  0  0  0  0
   28.3698   11.4865   10.5991 C   0  0  0  0  0  0  0  0  0  0  0  0
   27.6113   12.1378   10.5774 C   0  0  0  0  0  0  0  0  0  0  0  0
   27.2610   12.4683    9.7010 C   0  0  0  0  0  0  0  0  0  0  0  0
   26.5025   13.1196    9.6793 O   0  0  0  0  0  0  0  0  0  0  0  0
   27.6692   12.1475    8.8463 C   0  0  0  0  0  0  0  0  0  0  0  0
   28.4277   11.4962    8.8680 C   0  0  0  0  0  0  0  0  0  0  0  0
   26.1200   13.4202   10.4801 H   0  0  0  0  0  0  0  0  0  0  0  0
   30.4585   10.8122    9.5186 C   0  0  0  0  0  0  0  0  0  0  0  0
   30.8427   11.6405    9.9263 O   0  0  0  0  0  0  0  0  0  0  0  0
   30.9962   10.2817    8.8634 N   0  0  0  0  0  0  0  0  0  0  0  0
   30.6179    9.4662    8.4620 H   0  0  0  0  0  0  0  0  0  0  0  0
   31.9182   10.5794    8.6158 C   0  0  0  0  0  0  0  0  0  0  0  0
   32.0987   10.9383    7.7000 C   0  0  0  0  0  0  0  0  0  0  0  0
   32.0524   10.3311    6.9069 O   0  0  0  0  0  0  0  0  0  0  0  0
   32.3256   11.9045    7.5774 N   0  0  0  0  0  0  0  0  0  0  0  0
   32.3712   12.5023    8.3582 H   0  0  0  0  0  0  0  0  0  0  0  0
   32.5061   12.2634    6.6617 C   0  0  0  0  0  0  0  0  0  0  0  0
   33.4394   12.2714    6.3028 C   0  0  0  0  0  0  0  0  0  0  0  0
   34.1941   12.5845    6.8793 O   0  0  0  0  0  0  0  0  0  0  0  0
   33.6181   11.9663    5.3673 N   0  0  0  0  0  0  0  0  0  0  0  0
   32.8751   11.6581    4.7997 H   0  0  0  0  0  0  0  0  0  0  0  0
   34.5514   11.9743    5.0084 C   0  0  0  0  0  0  0  0  0  0  0  0
   35.1057   11.1425    5.0383 C   0  0  0  0  0  0  0  0  0  0  0  0
   34.7022   10.2635    4.7842 O   0  0  0  0  0  0  0  0  0  0  0  0
   36.0634   11.1897    5.3222 N   0  0  0  0  0  0  0  0  0  0  0  0
   36.4605   12.0551    5.5723 H   0  0  0  0  0  0  0  0  0  0  0  0
   36.6176   10.3579    5.3520 C   0  0  0  0  0  0  0  0  0  0  0  0
   37.1139   10.0582    4.5372 C   0  0  0  0  0  0  0  0  0  0  0  0
   36.8491    9.2129    4.0733 O   0  0  0  0  0  0  0  0  0  0  0  0
   37.8749   10.6040    4.1864 N   0  0  0  0  0  0  0  0  0  0  0  0
   38.2140   11.4595    4.5775 C   0  0  0  0  0  0  0  0  0  0  0  0
   38.9791   11.7742    4.0156 C   0  0  0  0  0  0  0  0  0  0  0  0
   39.1128   11.1131    3.2773 C   0  0  0  0  0  0  0  0  0  0  0  0
   38.4303   10.3898    3.3829 C   0  0  0  0  0  0  0  0  0  0  0  0
   38.3223    9.5925    2.7891 C   0  0  0  0  0  0  0  0  0  0  0  0
   37.7884    9.6651    1.9467 O   0  0  0  0  0  0  0  0  0  0  0  0
   38.7482    8.7225    3.0378 O   0  0  0  0  0  0  0  0  0  0  0  0
   37.3894   10.4802    1.7137 H   0  0  0  0  0  0  0  0  0  0  0  0
   36.6756    9.8257    6.1967 C   0  0  0  0  0  0  0  0  0  0  0  0
   36.9567   10.2683    7.0483 S   0  0  0  0  0  0  0  0  0  0  0  0
   37.2600   11.5941    7.0576 H   0  0  0  0  0  0  0  0  0  0  0  0
   34.9305   12.8140    4.6197 C   0  0  0  0  0  0  0  0  0  0  0  0
   34.6976   13.0818    3.6848 C   0  0  0  0  0  0  0  0  0  0  0  0
   34.0157   13.7642    3.4214 C   0  0  0  0  0  0  0  0  0  0  0  0
   34.0024   13.8184    2.4230 N   0  0  0  0  0  0  0  0  0  0  0  0
   34.6760   13.1694    2.0692 C   0  0  0  0  0  0  0  0  0  0  0  0
   35.1057   12.7142    2.8492 N   0  0  0  0  0  0  0  0  0  0  0  0
   35.8073   12.0251    2.8024 H   0  0  0  0  0  0  0  0  0  0  0  0
   31.7533   12.6143    6.1048 C   0  0  0  0  0  0  0  0  0  0  0  0
   31.3933   13.5322    6.2719 C   0  0  0  0  0  0  0  0  0  0  0  0
   30.5208   13.8082    5.8687 C   0  0  0  0  0  0  0  0  0  0  0  0
   29.6631   13.5856    6.3322 O   0  0  0  0  0  0  0  0  0  0  0  0
   30.5060   14.3068    5.0020 N   0  0  0  0  0  0  0  0  0  0  0  0
   31.3505   14.5260    4.5457 H   0  0  0  0  0  0  0  0  0  0  0  0
   29.6471   14.5786    4.6051 H   0  0  0  0  0  0  0  0  0  0  0  0
   32.6597   10.5183    9.2839 C   0  0  0  0  0  0  0  0  0  0  0  0
   33.2728    9.7283    9.2795 C   0  0  0  0  0  0  0  0  0  0  0  0
   34.0087    9.6627    9.9536 C   0  0  0  0  0  0  0  0  0  0  0  0
   34.2043    8.7879   10.3967 C   0  0  0  0  0  0  0  0  0  0  0  0
   34.5716    8.7695   11.3267 N   0  0  0  0  0  0  0  0  0  0  0  0
   34.7467    9.6432   11.8231 H   0  0  0  0  0  0  0  0  0  0  0  0
   34.7711    7.8773   11.7787 H   0  0  0  0  0  0  0  0  0  0  0  0
   29.6364    9.2520   10.9478 C   0  0  0  0  0  0  0  0  0  0  0  0
   30.0632    9.8878   11.5911 O   0  0  0  0  0  0  0  0  0  0  0  0
   29.3731    9.5653   10.0354 N   0  0  0  0  0  0  0  0  0  0  0  0
   28.9529    8.9394    9.4023 H   0  0  0  0  0  0  0  0  0  0  0  0
   29.4729    8.3029   11.2171 C   0  0  0  0  0  0  0  0  0  0  0  0
   30.4786    7.0839   10.5081 C   0  0  0  0  0  0  0  0  0  0  0  0
   31.2232    7.3396   11.1246 O   0  0  0  0  0  0  0  0  0  0  0  0
   29.6034    7.5656   10.5543 N   0  0  0  0  0  0  0  0  0  0  0  0
   28.8703    7.3139    9.9474 H   0  0  0  0  0  0  0  0  0  0  0  0
   30.6090    6.3466    9.8453 C   0  0  0  0  0  0  0  0  0  0  0  0
   31.4318    6.7536    8.3765 C   0  0  0  0  0  0  0  0  0  0  0  0
   30.6066    7.2074    8.0401 O   0  0  0  0  0  0  0  0  0  0  0  0
   31.4330    6.3232    9.2791 N   0  0  0  0  0  0  0  0  0  0  0  0
   32.2453    5.8765    9.6104 H   0  0  0  0  0  0  0  0  0  0  0  0
   32.2557    6.7302    7.8103 C   0  0  0  0  0  0  0  0  0  0  0  0
   33.0657    6.2363    8.1263 C   0  0  0  0  0  0  0  0  0  0  0  0
   32.4047    6.6795    6.0855 C   0  0  0  0  0  0  0  0  0  0  0  0
   32.5259    5.6876    6.1251 O   0  0  0  0  0  0  0  0  0  0  0  0
   32.2696    7.2008    6.9280 N   0  0  0  0  0  0  0  0  0  0  0  0
   32.1504    8.1772    6.8890 H   0  0  0  0  0  0  0  0  0  0  0  0
   32.4187    7.1500    5.2031 C   0  0  0  0  0  0  0  0  0  0  0  0
   31.0066    8.0051    4.6790 C   0  0  0  0  0  0  0  0  0  0  0  0
   30.5923    7.1427    4.3881 O   0  0  0  0  0  0  0  0  0  0  0  0
   31.9197    8.0088    5.0865 N   0  0  0  0  0  0  0  0  0  0  0  0
   32.3276    8.8578    5.3729 H   0  0  0  0  0  0  0  0  0  0  0  0
   30.5076    8.8639    4.5624 C   0  0  0  0  0  0  0  0  0  0  0  0
   30.9534    9.8526    3.2120 C   0  0  0  0  0  0  0  0  0  0  0  0
   30.4644    9.2337    2.5974 O   0  0  0  0  0  0  0  0  0  0  0  0
   30.9750    9.6677    4.1945 N   0  0  0  0  0  0  0  0  0  0  0  0
   31.4565   10.2771    4.7997 H   0  0  0  0  0  0  0  0  0  0  0  0
   31.1049   11.5736    3.0875 N   0  0  0  0  0  0  0  0  0  0  0  0
   31.4209   10.6566    2.8441 C   0  0  0  0  0  0  0  0  0  0  0  0
   31.5816   12.3935    2.7123 H   0  0  0  0  0  0  0  0  0  0  0  0
   30.3058   11.6890    3.7109 H   0  0  0  0  0  0  0  0  0  0  0  0
   32.2042   10.5434    2.2330 C   0  0  0  0  0  0  0  0  0  0  0  0
   33.0437   10.1171    2.5698 O   0  0  0  0  0  0  0  0  0  0  0  0
   32.1480   10.8565    1.2849 C   0  0  0  0  0  0  0  0  0  0  0  0
   33.0982    9.8134    3.4895 H   0  0  0  0  0  0  0  0  0  0  0  0
   29.5413    8.9188    4.8137 C   0  0  0  0  0  0  0  0  0  0  0  0
   29.2633    9.4412    5.6198 C   0  0  0  0  0  0  0  0  0  0  0  0
   28.3514    9.3118    6.0095 C   0  0  0  0  0  0  0  0  0  0  0  0
   27.5813    9.8521    5.6702 O   0  0  0  0  0  0  0  0  0  0  0  0
   28.2096    8.6421    6.7384 N   0  0  0  0  0  0  0  0  0  0  0  0
   28.9677    8.1102    7.0724 H   0  0  0  0  0  0  0  0  0  0  0  0
   27.3119    8.5147    7.1220 H   0  0  0  0  0  0  0  0  0  0  0  0
   32.9315    6.7618    4.4375 C   0  0  0  0  0  0  0  0  0  0  0  0
   33.8723    7.0543    4.2663 C   0  0  0  0  0  0  0  0  0  0  0  0
   34.2725    6.9441    3.3565 C   0  0  0  0  0  0  0  0  0  0  0  0
   34.2068    6.0649    2.8846 O   0  0  0  0  0  0  0  0  0  0  0  0
   34.7383    7.7130    2.9186 N   0  0  0  0  0  0  0  0  0  0  0  0
   34.8030    8.5786    3.3832 H   0  0  0  0  0  0  0  0  0  0  0  0
   35.1323    7.6044    2.0229 H   0  0  0  0  0  0  0  0  0  0  0  0
   29.9156    5.6326    9.7487 C   0  0  0  0  0  0  0  0  0  0  0  0
   29.9080    4.8547   10.3770 O   0  0  0  0  0  0  0  0  0  0  0  0
   29.2353    4.1621   10.2833 H   0  0  0  0  0  0  0  0  0  0  0  0
   29.1790    8.0912   12.1493 C   0  0  0  0  0  0  0  0  0  0  0  0
   28.2985    7.6440   12.3064 C   0  0  0  0  0  0  0  0  0  0  0  0
   27.3981    8.0675   12.2070 C   0  0  0  0  0  0  0  0  0  0  0  0
   26.7068    7.3800   12.4298 N   0  0  0  0  0  0  0  0  0  0  0  0
   27.1801    6.5316   12.6669 C   0  0  0  0  0  0  0  0  0  0  0  0
   28.1638    6.6948   12.5907 N   0  0  0  0  0  0  0  0  0  0  0  0
   28.8748    6.0365   12.7649 H   0  0  0  0  0  0  0  0  0  0  0  0
 95 96  1  0  0  0
 95 97  1  0  0  0
 95 98  1  0  0  0
 96 91  1  0  0  0
 96 99  1  0  0  0
 91 92  2  0  0  0
 91 93  1  0  0  0
 93 90  1  0  0  0
 93 94  1  0  0  0
 90103  1  0  0  0
 90 86  1  0  0  0
103104  1  0  0  0
104105  1  0  0  0
105106  2  0  0  0
105107  1  0  0  0
107108  1  0  0  0
107109  1  0  0  0
 86 87  2  0  0  0
 86 88  1  0  0  0
 88 85  1  0  0  0
 88 89  1  0  0  0
 85110  1  0  0  0
 85 81  1  0  0  0
110111  1  0  0  0
111112  1  0  0  0
112113  2  0  0  0
112114  1  0  0  0
114115  1  0  0  0
114116  1  0  0  0
 81 82  2  0  0  0
 81 83  1  0  0  0
 83 79  1  0  0  0
 83 84  1  0  0  0
 79 80  1  0  0  0
 79 75  1  0  0  0
 75 76  2  0  0  0
 75 77  1  0  0  0
 77 74  1  0  0  0
 77 78  1  0  0  0
 74117  1  0  0  0
 74 70  1  0  0  0
117118  1  0  0  0
118119  1  0  0  0
 70 71  2  0  0  0
 70 72  1  0  0  0
 72 69  1  0  0  0
 72 73  1  0  0  0
 69120  1  0  0  0
 69 65  1  0  0  0
120121  1  0  0  0
121125  1  0  0  0
121122  2  0  0  0
122123  1  0  0  0
123124  2  0  0  0
124125  1  0  0  0
125126  1  0  0  0
 65 66  2  0  0  0
 65 67  1  0  0  0
 67  1  1  0  0  0
 67 68  1  0  0  0
  1  2  1  0  0  0
  1 10  1  0  0  0
  2  8  2  0  0  0
  2  3  1  0  0  0
  3  4  2  0  0  0
  4  5  1  0  0  0
  5  6  1  0  0  0
  5  7  2  0  0  0
  6  9  1  0  0  0
  7  8  1  0  0  0
 10 11  2  0  0  0
 10 12  1  0  0  0
 12 14  1  0  0  0
 12 13  1  0  0  0
 14 58  1  0  0  0
 14 15  1  0  0  0
 58 59  1  0  0  0
 59 60  1  0  0  0
 60 61  1  0  0  0
 61 62  1  0  0  0
 62 63  1  0  0  0
 62 64  1  0  0  0
 15 16  2  0  0  0
 15 17  1  0  0  0
 17 19  1  0  0  0
 17 18  1  0  0  0
 19 51  1  0  0  0
 19 20  1  0  0  0
 51 52  1  0  0  0
 52 53  1  0  0  0
 53 54  2  0  0  0
 53 55  1  0  0  0
 55 56  1  0  0  0
 55 57  1  0  0  0
 20 21  2  0  0  0
 20 22  1  0  0  0
 22 24  1  0  0  0
 22 23  1  0  0  0
 24 44  1  0  0  0
 24 25  1  0  0  0
 44 45  1  0  0  0
 45 49  1  0  0  0
 45 46  2  0  0  0
 46 47  1  0  0  0
 47 48  2  0  0  0
 48 49  1  0  0  0
 49 50  1  0  0  0
 25 26  2  0  0  0
 25 27  1  0  0  0
 27 29  1  0  0  0
 27 28  1  0  0  0
 29 41  1  0  0  0
 29 30  1  0  0  0
 41 42  1  0  0  0
 42 43  1  0  0  0
 30 31  2  0  0  0
 30 32  1  0  0  0
 32 36  1  0  0  0
 32 33  1  0  0  0
 33 34  1  0  0  0
 34 35  1  0  0  0
 35 36  1  0  0  0
 36 37  1  0  0  0
 37 38  1  0  0  0
 37 39  2  0  0  0
 38 40  1  0  0  0
 99100  1  0  0  0
 99101  1  0  0  0
100102  1  0  0  0
M  END
> <minimizedAffinity>
-4.45056

$$$$



126129  0  0  0  0  0  0  0  0999 V2000
   31.2168   10.5241    8.8387 C   0  0  0  0  0  0  0  0  0  0  0  0
   30.3238   10.9617    8.9444 C   0  0  0  0  0  0  0  0  0  0  0  0
   29.6954   11.0095    8.1681 C   0  0  0  0  0  0  0  0  0  0  0  0
   28.8024   11.4471    8.2739 C   0  0  0  0  0  0  0  0  0  0  0  0
   28.5379   11.8369    9.1561 C   0  0  0  0  0  0  0  0  0  0  0  0
   27.6450   12.2744    9.2618 O   0  0  0  0  0  0  0  0  0  0  0  0
   29.1664   11.7890    9.9324 C   0  0  0  0  0  0  0  0  0  0  0  0
   30.0594   11.3515    9.8266 C   0  0  0  0  0  0  0  0  0  0  0  0
   27.0561   12.3192    8.5344 H   0  0  0  0  0  0  0  0  0  0  0  0
   31.8328   10.8156    8.1069 C   0  0  0  0  0  0  0  0  0  0  0  0
   31.6526   10.5407    7.1624 O   0  0  0  0  0  0  0  0  0  0  0  0
   32.6291   11.3819    8.3195 N   0  0  0  0  0  0  0  0  0  0  0  0
   32.8065   11.6524    9.2494 H   0  0  0  0  0  0  0  0  0  0  0  0
   33.2452   11.6734    7.5877 C   0  0  0  0  0  0  0  0  0  0  0  0
   34.1209   11.2087    7.4566 C   0  0  0  0  0  0  0  0  0  0  0  0
   34.6538   10.9133    8.2496 O   0  0  0  0  0  0  0  0  0  0  0  0
   34.4638   11.0395    6.5326 N   0  0  0  0  0  0  0  0  0  0  0  0
   33.9392   11.3304    5.7520 H   0  0  0  0  0  0  0  0  0  0  0  0
   35.3395   10.5749    6.4015 C   0  0  0  0  0  0  0  0  0  0  0  0
   36.1518   11.1009    6.1498 C   0  0  0  0  0  0  0  0  0  0  0  0
   36.9962   10.9994    6.6759 O   0  0  0  0  0  0  0  0  0  0  0  0
   36.1199   11.7285    5.3718 N   0  0  0  0  0  0  0  0  0  0  0  0
   35.2886   11.8285    4.8538 H   0  0  0  0  0  0  0  0  0  0  0  0
   36.9322   12.2546    5.1200 C   0  0  0  0  0  0  0  0  0  0  0  0
   37.6077   11.8628    4.4954 C   0  0  0  0  0  0  0  0  0  0  0  0
   38.5835   11.9480    4.6969 O   0  0  0  0  0  0  0  0  0  0  0  0
   37.3075   11.3860    3.6693 N   0  0  0  0  0  0  0  0  0  0  0  0
   36.3469   11.3022    3.4710 H   0  0  0  0  0  0  0  0  0  0  0  0
   37.9831   10.9942    3.0447 C   0  0  0  0  0  0  0  0  0  0  0  0
   38.1269   10.0049    3.0202 C   0  0  0  0  0  0  0  0  0  0  0  0
   39.0091    9.6210    3.2924 O   0  0  0  0  0  0  0  0  0  0  0  0
   37.3882    9.3995    2.7233 N   0  0  0  0  0  0  0  0  0  0  0  0
   36.4749    9.6852    2.4332 C   0  0  0  0  0  0  0  0  0  0  0  0
   35.9556    8.8644    2.1951 C   0  0  0  0  0  0  0  0  0  0  0  0
   36.5480    8.0716    2.3381 C   0  0  0  0  0  0  0  0  0  0  0  0
   37.4334    8.4023    2.6646 C   0  0  0  0  0  0  0  0  0  0  0  0
   38.2250    7.8354    2.8923 C   0  0  0  0  0  0  0  0  0  0  0  0
   38.3985    7.5775    3.8428 O   0  0  0  0  0  0  0  0  0  0  0  0
   38.8432    7.5262    2.1696 O   0  0  0  0  0  0  0  0  0  0  0  0
   37.8193    7.8671    4.5200 H   0  0  0  0  0  0  0  0  0  0  0  0
   38.5149   11.5918    2.4446 C   0  0  0  0  0  0  0  0  0  0  0  0
   38.0645   12.0765    1.6948 S   0  0  0  0  0  0  0  0  0  0  0  0
   36.7287   11.9230    1.4911 H   0  0  0  0  0  0  0  0  0  0  0  0
   37.0689   13.1723    5.4929 C   0  0  0  0  0  0  0  0  0  0  0  0
   36.4838   13.9260    5.1934 C   0  0  0  0  0  0  0  0  0  0  0  0
   35.8395   13.9020    4.4290 C   0  0  0  0  0  0  0  0  0  0  0  0
   35.3978   14.7971    4.3690 N   0  0  0  0  0  0  0  0  0  0  0  0
   35.7691   15.3744    5.0963 C   0  0  0  0  0  0  0  0  0  0  0  0
   36.4403   14.8359    5.6058 N   0  0  0  0  0  0  0  0  0  0  0  0
   36.9660   15.1472    6.3778 H   0  0  0  0  0  0  0  0  0  0  0  0
   35.4029    9.5842    6.5222 C   0  0  0  0  0  0  0  0  0  0  0  0
   35.2021    8.9734    5.7564 C   0  0  0  0  0  0  0  0  0  0  0  0
   35.4035    7.9966    5.8298 C   0  0  0  0  0  0  0  0  0  0  0  0
   36.3369    7.6914    6.0190 O   0  0  0  0  0  0  0  0  0  0  0  0
   34.6717    7.3251    5.7141 N   0  0  0  0  0  0  0  0  0  0  0  0
   33.7528    7.6256    5.5278 H   0  0  0  0  0  0  0  0  0  0  0  0
   34.8700    6.3635    5.7863 H   0  0  0  0  0  0  0  0  0  0  0  0
   32.9855   12.4295    6.9870 C   0  0  0  0  0  0  0  0  0  0  0  0
   33.1678   13.3731    7.2636 C   0  0  0  0  0  0  0  0  0  0  0  0
   32.7482   14.1306    6.7636 C   0  0  0  0  0  0  0  0  0  0  0  0
   32.8925   15.0720    7.0687 C   0  0  0  0  0  0  0  0  0  0  0  0
   32.2934   15.8017    6.7392 N   0  0  0  0  0  0  0  0  0  0  0  0
   31.5352   15.5859    6.0918 H   0  0  0  0  0  0  0  0  0  0  0  0
   32.4406   16.7619    7.0503 H   0  0  0  0  0  0  0  0  0  0  0  0
   31.3570    8.8380    9.2092 C   0  0  0  0  0  0  0  0  0  0  0  0
   30.9435    8.6099    8.3277 O   0  0  0  0  0  0  0  0  0  0  0  0
   31.4936    9.7951    9.4647 N   0  0  0  0  0  0  0  0  0  0  0  0
   31.9007   10.0197   10.3324 H   0  0  0  0  0  0  0  0  0  0  0  0
   31.6339    8.1090    9.8352 C   0  0  0  0  0  0  0  0  0  0  0  0
   30.5678    7.5022   11.0580 C   0  0  0  0  0  0  0  0  0  0  0  0
   30.8407    8.2478   11.6659 O   0  0  0  0  0  0  0  0  0  0  0  0
   30.9644    7.4328   10.1426 N   0  0  0  0  0  0  0  0  0  0  0  0
   30.6957    6.6988    9.5440 H   0  0  0  0  0  0  0  0  0  0  0  0
   29.8983    6.8261   11.3654 C   0  0  0  0  0  0  0  0  0  0  0  0
   28.2391    7.2333   11.6504 C   0  0  0  0  0  0  0  0  0  0  0  0
   28.0402    7.1025   10.6791 O   0  0  0  0  0  0  0  0  0  0  0  0
   29.1681    7.0951   11.9935 N   0  0  0  0  0  0  0  0  0  0  0  0
   29.3640    7.2239   12.9496 H   0  0  0  0  0  0  0  0  0  0  0  0
   27.5090    7.5024   12.2785 C   0  0  0  0  0  0  0  0  0  0  0  0
   26.6888    6.9367   12.3634 C   0  0  0  0  0  0  0  0  0  0  0  0
   27.5219    8.2962   13.8178 C   0  0  0  0  0  0  0  0  0  0  0  0
   27.3547    7.4205   14.2708 O   0  0  0  0  0  0  0  0  0  0  0  0
   27.5990    8.3371   12.8216 N   0  0  0  0  0  0  0  0  0  0  0  0
   27.7637    9.1993   12.3757 H   0  0  0  0  0  0  0  0  0  0  0  0
   27.6119    9.1310   14.3611 C   0  0  0  0  0  0  0  0  0  0  0  0
   26.3008   10.2373   14.5996 C   0  0  0  0  0  0  0  0  0  0  0  0
   25.9803    9.6907   15.3731 O   0  0  0  0  0  0  0  0  0  0  0  0
   27.1166    9.9575   14.0935 N   0  0  0  0  0  0  0  0  0  0  0  0
   27.4322   10.4956   13.3319 H   0  0  0  0  0  0  0  0  0  0  0  0
   25.8055   11.0638   14.3320 C   0  0  0  0  0  0  0  0  0  0  0  0
   24.3051   11.5456   15.0510 C   0  0  0  0  0  0  0  0  0  0  0  0
   23.8085   10.9747   14.3972 O   0  0  0  0  0  0  0  0  0  0  0  0
   25.3036   11.5902   15.0184 N   0  0  0  0  0  0  0  0  0  0  0  0
   25.7926   12.1523   15.6620 H   0  0  0  0  0  0  0  0  0  0  0  0
   23.4166   11.6114   16.5363 N   0  0  0  0  0  0  0  0  0  0  0  0
   23.8033   12.0720   15.7374 C   0  0  0  0  0  0  0  0  0  0  0  0
   22.9048   12.1483   17.2364 H   0  0  0  0  0  0  0  0  0  0  0  0
   23.5341   10.6047   16.6512 H   0  0  0  0  0  0  0  0  0  0  0  0
   23.6881   13.0589   15.6248 C   0  0  0  0  0  0  0  0  0  0  0  0
   23.1987   13.4178   14.8299 O   0  0  0  0  0  0  0  0  0  0  0  0
   24.0624   13.6870   16.3070 C   0  0  0  0  0  0  0  0  0  0  0  0
   22.8357   12.8085   14.1682 H   0  0  0  0  0  0  0  0  0  0  0  0
   25.8120   11.3639   13.3782 C   0  0  0  0  0  0  0  0  0  0  0  0
   26.3105   12.1907   13.1176 C   0  0  0  0  0  0  0  0  0  0  0  0
   26.1964   12.5756   12.2017 C   0  0  0  0  0  0  0  0  0  0  0  0
   26.6515   13.4323   11.9591 O   0  0  0  0  0  0  0  0  0  0  0  0
   25.6270   12.1038   11.5284 N   0  0  0  0  0  0  0  0  0  0  0  0
   25.1790   11.2604   11.7673 H   0  0  0  0  0  0  0  0  0  0  0  0
   25.5147   12.4828   10.6268 H   0  0  0  0  0  0  0  0  0  0  0  0
   28.1973    9.1392   15.1718 C   0  0  0  0  0  0  0  0  0  0  0  0
   29.1386    9.4700   15.1054 C   0  0  0  0  0  0  0  0  0  0  0  0
   29.6784    9.6117   15.9352 C   0  0  0  0  0  0  0  0  0  0  0  0
   29.8697   10.5397   16.2549 O   0  0  0  0  0  0  0  0  0  0  0  0
   30.0271    8.8253   16.4453 N   0  0  0  0  0  0  0  0  0  0  0  0
   29.8388    7.9117   16.1305 H   0  0  0  0  0  0  0  0  0  0  0  0
   30.5585    8.9648   17.2622 H   0  0  0  0  0  0  0  0  0  0  0  0
   29.9589    5.8808   11.0447 C   0  0  0  0  0  0  0  0  0  0  0  0
   30.3570    5.1776   11.6337 O   0  0  0  0  0  0  0  0  0  0  0  0
   30.4158    4.2606   11.3226 H   0  0  0  0  0  0  0  0  0  0  0  0
   32.5804    8.0562   10.1538 C   0  0  0  0  0  0  0  0  0  0  0  0
   33.2419    7.4882    9.6641 C   0  0  0  0  0  0  0  0  0  0  0  0
   34.1823    7.7428    9.4389 C   0  0  0  0  0  0  0  0  0  0  0  0
   34.6008    6.9779    8.9491 N   0  0  0  0  0  0  0  0  0  0  0  0
   33.9188    6.2505    8.8716 C   0  0  0  0  0  0  0  0  0  0  0  0
   33.0790    6.5660    9.3135 N   0  0  0  0  0  0  0  0  0  0  0  0
   32.2393    6.0578    9.3899 H   0  0  0  0  0  0  0  0  0  0  0  0
 95 96  1  0  0  0
 95 97  1  0  0  0
 95 98  1  0  0  0
 96 91  1  0  0  0
 96 99  1  0  0  0
 91 92  2  0  0  0
 91 93  1  0  0  0
 93 90  1  0  0  0
 93 94  1  0  0  0
 90103  1  0  0  0
 90 86  1  0  0  0
103104  1  0  0  0
104105  1  0  0  0
105106  2  0  0  0
105107  1  0  0  0
107108  1  0  0  0
107109  1  0  0  0
 86 87  2  0  0  0
 86 88  1  0  0  0
 88 85  1  0  0  0
 88 89  1  0  0  0
 85110  1  0  0  0
 85 81  1  0  0  0
110111  1  0  0  0
111112  1  0  0  0
112113  2  0  0  0
112114  1  0  0  0
114115  1  0  0  0
114116  1  0  0  0
 81 82  2  0  0  0
 81 83  1  0  0  0
 83 79  1  0  0  0
 83 84  1  0  0  0
 79 80  1  0  0  0
 79 75  1  0  0  0
 75 76  2  0  0  0
 75 77  1  0  0  0
 77 74  1  0  0  0
 77 78  1  0  0  0
 74117  1  0  0  0
 74 70  1  0  0  0
117118  1  0  0  0
118119  1  0  0  0
 70 71  2  0  0  0
 70 72  1  0  0  0
 72 69  1  0  0  0
 72 73  1  0  0  0
 69120  1  0  0  0
 69 65  1  0  0  0
120121  1  0  0  0
121125  1  0  0  0
121122  2  0  0  0
122123  1  0  0  0
123124  2  0  0  0
124125  1  0  0  0
125126  1  0  0  0
 65 66  2  0  0  0
 65 67  1  0  0  0
 67  1  1  0  0  0
 67 68  1  0  0  0
  1  2  1  0  0  0
  1 10  1  0  0  0
  2  8  2  0  0  0
  2  3  1  0  0  0
  3  4  2  0  0  0
  4  5  1  0  0  0
  5  6  1  0  0  0
  5  7  2  0  0  0
  6  9  1  0  0  0
  7  8  1  0  0  0
 10 11  2  0  0  0
 10 12  1  0  0  0
 12 14  1  0  0  0
 12 13  1  0  0  0
 14 58  1  0  0  0
 14 15  1  0  0  0
 58 59  1  0  0  0
 59 60  1  0  0  0
 60 61  1  0  0  0
 61 62  1  0  0  0
 62 63  1  0  0  0
 62 64  1  0  0  0
 15 16  2  0  0  0
 15 17  1  0  0  0
 17 19  1  0  0  0
 17 18  1  0  0  0
 19 51  1  0  0  0
 19 20  1  0  0  0
 51 52  1  0  0  0
 52 53  1  0  0  0
 53 54  2  0  0  0
 53 55  1  0  0  0
 55 56  1  0  0  0
 55 57  1  0  0  0
 20 21  2  0  0  0
 20 22  1  0  0  0
 22 24  1  0  0  0
 22 23  1  0  0  0
 24 44  1  0  0  0
 24 25  1  0  0  0
 44 45  1  0  0  0
 45 49  1  0  0  0
 45 46  2  0  0  0
 46 47  1  0  0  0
 47 48  2  0  0  0
 48 49  1  0  0  0
 49 50  1  0  0  0
 25 26  2  0  0  0
 25 27  1  0  0  0
 27 29  1  0  0  0
 27 28  1  0  0  0
 29 41  1  0  0  0
 29 30  1  0  0  0
 41 42  1  0  0  0
 42 43  1  0  0  0
 30 31  2  0  0  0
 30 32  1  0  0  0
 32 36  1  0  0  0
 32 33  1  0  0  0
 33 34  1  0  0  0
 34 35  1  0  0  0
 35 36  1  0  0  0
 36 37  1  0  0  0
 37 38  1  0  0  0
 37 39  2  0  0  0
 38 40  1  0  0  0
 99100  1  0  0  0
 99101  1  0  0  0
100102  1  0  0  0
M  END
> <minimizedAffinity>
-4.43030

$$$$



126129  0  0  0  0  0  0  0  0999 V2000
   33.2145    7.2786    8.5576 C   0  0  0  0  0  0  0  0  0  0  0  0
   33.2869    6.5977    9.2864 C   0  0  0  0  0  0  0  0  0  0  0  0
   32.4882    6.3781    9.8466 C   0  0  0  0  0  0  0  0  0  0  0  0
   32.5607    5.6971   10.5754 C   0  0  0  0  0  0  0  0  0  0  0  0
   33.4318    5.2358   10.7439 C   0  0  0  0  0  0  0  0  0  0  0  0
   33.5042    4.5549   11.4727 O   0  0  0  0  0  0  0  0  0  0  0  0
   34.2304    5.4554   10.1837 C   0  0  0  0  0  0  0  0  0  0  0  0
   34.1581    6.1364    9.4550 C   0  0  0  0  0  0  0  0  0  0  0  0
   32.7558    4.3491   11.9976 H   0  0  0  0  0  0  0  0  0  0  0  0
   33.7312    8.1326    8.6182 C   0  0  0  0  0  0  0  0  0  0  0  0
   34.5715    8.1713    9.1590 O   0  0  0  0  0  0  0  0  0  0  0  0
   33.4077    8.9479    8.1379 N   0  0  0  0  0  0  0  0  0  0  0  0
   32.5805    8.9097    7.6055 H   0  0  0  0  0  0  0  0  0  0  0  0
   33.9244    9.8019    8.1985 C   0  0  0  0  0  0  0  0  0  0  0  0
   34.7188    9.9486    7.6091 C   0  0  0  0  0  0  0  0  0  0  0  0
   35.5063   10.4621    7.9499 O   0  0  0  0  0  0  0  0  0  0  0  0
   34.7258    9.5817    6.6788 N   0  0  0  0  0  0  0  0  0  0  0  0
   33.9505    9.0761    6.3433 H   0  0  0  0  0  0  0  0  0  0  0  0
   35.5202    9.7283    6.0894 C   0  0  0  0  0  0  0  0  0  0  0  0
   35.4393   10.3033    5.2753 C   0  0  0  0  0  0  0  0  0  0  0  0
   34.7876   10.0628    4.5560 O   0  0  0  0  0  0  0  0  0  0  0  0
   36.0103   11.1189    5.1804 N   0  0  0  0  0  0  0  0  0  0  0  0
   36.6519   11.3557    5.8886 H   0  0  0  0  0  0  0  0  0  0  0  0
   35.9294   11.6939    4.3663 C   0  0  0  0  0  0  0  0  0  0  0  0
   36.5864   11.5970    3.6186 C   0  0  0  0  0  0  0  0  0  0  0  0
   37.5470   11.8343    3.7632 O   0  0  0  0  0  0  0  0  0  0  0  0
   36.2827   11.2630    2.7263 N   0  0  0  0  0  0  0  0  0  0  0  0
   35.3370   11.0294    2.5840 H   0  0  0  0  0  0  0  0  0  0  0  0
   36.9396   11.1662    1.9786 C   0  0  0  0  0  0  0  0  0  0  0  0
   37.3217   10.2678    1.7619 C   0  0  0  0  0  0  0  0  0  0  0  0
   38.3060   10.1106    1.8418 O   0  0  0  0  0  0  0  0  0  0  0  0
   36.7193    9.5266    1.4653 N   0  0  0  0  0  0  0  0  0  0  0  0
   35.7271    9.5841    1.3549 C   0  0  0  0  0  0  0  0  0  0  0  0
   35.3982    8.6908    1.0485 C   0  0  0  0  0  0  0  0  0  0  0  0
   36.1871    8.0814    0.9695 C   0  0  0  0  0  0  0  0  0  0  0  0
   37.0036    8.5979    1.2271 C   0  0  0  0  0  0  0  0  0  0  0  0
   37.9399    8.2474    1.2436 C   0  0  0  0  0  0  0  0  0  0  0  0
   38.3211    7.8790    2.0916 O   0  0  0  0  0  0  0  0  0  0  0  0
   38.4953    8.2651    0.4121 O   0  0  0  0  0  0  0  0  0  0  0  0
   37.8008    7.8624    2.8707 H   0  0  0  0  0  0  0  0  0  0  0  0
   37.2145   11.9677    1.4476 C   0  0  0  0  0  0  0  0  0  0  0  0
   36.5771   12.3781    0.7954 S   0  0  0  0  0  0  0  0  0  0  0  0
   35.3364   11.8461    0.6306 H   0  0  0  0  0  0  0  0  0  0  0  0
   35.1917   12.3657    4.2999 C   0  0  0  0  0  0  0  0  0  0  0  0
   35.2446   13.2193    4.8180 C   0  0  0  0  0  0  0  0  0  0  0  0
   34.6624   13.4757    5.5896 C   0  0  0  0  0  0  0  0  0  0  0  0
   34.9470   14.3812    5.9040 N   0  0  0  0  0  0  0  0  0  0  0  0
   35.7051   14.6847    5.3268 C   0  0  0  0  0  0  0  0  0  0  0  0
   35.8890   13.9665    4.6556 N   0  0  0  0  0  0  0  0  0  0  0  0
   36.5828   13.9909    3.9574 H   0  0  0  0  0  0  0  0  0  0  0  0
   36.3954    9.2999    6.3142 C   0  0  0  0  0  0  0  0  0  0  0  0
   36.6605    8.4427    5.8727 C   0  0  0  0  0  0  0  0  0  0  0  0
   37.6007    8.1108    5.9492 C   0  0  0  0  0  0  0  0  0  0  0  0
   37.9434    7.7777    6.8277 O   0  0  0  0  0  0  0  0  0  0  0  0
   38.1981    8.1119    5.1474 N   0  0  0  0  0  0  0  0  0  0  0  0
   37.8607    8.4398    4.2826 H   0  0  0  0  0  0  0  0  0  0  0  0
   39.1237    7.7851    5.2227 H   0  0  0  0  0  0  0  0  0  0  0  0
   33.6467   10.5093    8.8484 C   0  0  0  0  0  0  0  0  0  0  0  0
   32.7056   10.8476    8.8474 C   0  0  0  0  0  0  0  0  0  0  0  0
   32.2259   10.9938    9.7126 C   0  0  0  0  0  0  0  0  0  0  0  0
   31.2838   11.3290    9.7115 C   0  0  0  0  0  0  0  0  0  0  0  0
   30.8082   11.4869   10.5769 N   0  0  0  0  0  0  0  0  0  0  0  0
   31.2842   11.3059   11.4608 H   0  0  0  0  0  0  0  0  0  0  0  0
   29.8473   11.8288   10.5758 H   0  0  0  0  0  0  0  0  0  0  0  0
   33.0142    6.7302    6.9270 C   0  0  0  0  0  0  0  0  0  0  0  0
   33.9922    6.5279    6.8749 O   0  0  0  0  0  0  0  0  0  0  0  0
   32.6254    7.1056    7.7683 N   0  0  0  0  0  0  0  0  0  0  0  0
   31.6627    7.3047    7.8197 H   0  0  0  0  0  0  0  0  0  0  0  0
   32.4251    6.5571    6.1377 C   0  0  0  0  0  0  0  0  0  0  0  0
   31.3581    7.8417    5.6779 C   0  0  0  0  0  0  0  0  0  0  0  0
   32.1296    8.3419    5.2849 O   0  0  0  0  0  0  0  0  0  0  0  0
   31.5058    6.9493    6.1043 N   0  0  0  0  0  0  0  0  0  0  0  0
   30.7463    6.4568    6.4913 H   0  0  0  0  0  0  0  0  0  0  0  0
   30.4388    8.2338    5.6446 C   0  0  0  0  0  0  0  0  0  0  0  0
   29.7449    9.1128    6.9659 C   0  0  0  0  0  0  0  0  0  0  0  0
   30.1810    9.9506    6.6375 O   0  0  0  0  0  0  0  0  0  0  0  0
   29.8738    8.2544    6.4694 N   0  0  0  0  0  0  0  0  0  0  0  0
   29.4444    7.4296    6.7926 H   0  0  0  0  0  0  0  0  0  0  0  0
   29.1798    9.1334    7.7907 C   0  0  0  0  0  0  0  0  0  0  0  0
   28.4935    9.8510    7.9088 C   0  0  0  0  0  0  0  0  0  0  0  0
   28.9147    8.5762    9.4090 C   0  0  0  0  0  0  0  0  0  0  0  0
   28.4070    9.4130    9.6140 O   0  0  0  0  0  0  0  0  0  0  0  0
   29.3011    8.4364    8.4974 N   0  0  0  0  0  0  0  0  0  0  0  0
   29.8009    7.6126    8.2956 H   0  0  0  0  0  0  0  0  0  0  0  0
   29.0360    7.8792   10.1158 C   0  0  0  0  0  0  0  0  0  0  0  0
   28.5515    6.2665    9.7104 C   0  0  0  0  0  0  0  0  0  0  0  0
   27.5923    6.5273    9.8192 O   0  0  0  0  0  0  0  0  0  0  0  0
   29.2733    6.9424    9.8587 N   0  0  0  0  0  0  0  0  0  0  0  0
   30.2177    6.6856    9.7515 H   0  0  0  0  0  0  0  0  0  0  0  0
   28.7888    5.3297    9.4532 C   0  0  0  0  0  0  0  0  0  0  0  0
   29.0482    4.9108    7.7927 C   0  0  0  0  0  0  0  0  0  0  0  0
   29.9838    5.2589    7.8510 O   0  0  0  0  0  0  0  0  0  0  0  0
   28.4507    4.9462    8.5938 N   0  0  0  0  0  0  0  0  0  0  0  0
   27.5295    4.6035    8.5364 H   0  0  0  0  0  0  0  0  0  0  0  0
   28.6614    5.1001    6.1150 N   0  0  0  0  0  0  0  0  0  0  0  0
   28.7100    4.5273    6.9333 C   0  0  0  0  0  0  0  0  0  0  0  0
   28.3165    4.7090    5.2384 H   0  0  0  0  0  0  0  0  0  0  0  0
   28.9568    6.0756    6.1570 H   0  0  0  0  0  0  0  0  0  0  0  0
   28.4205    3.5710    6.8921 C   0  0  0  0  0  0  0  0  0  0  0  0
   29.0771    2.8412    7.0824 O   0  0  0  0  0  0  0  0  0  0  0  0
   27.4744    3.3446    6.6606 C   0  0  0  0  0  0  0  0  0  0  0  0
   29.9948    3.0608    7.3070 H   0  0  0  0  0  0  0  0  0  0  0  0
   29.3642    4.7764   10.0555 C   0  0  0  0  0  0  0  0  0  0  0  0
   28.9456    4.2105   10.7657 C   0  0  0  0  0  0  0  0  0  0  0  0
   29.5226    3.7140   11.4143 C   0  0  0  0  0  0  0  0  0  0  0  0
   29.9258    2.8365   11.1549 O   0  0  0  0  0  0  0  0  0  0  0  0
   29.6964    4.0953   12.3223 N   0  0  0  0  0  0  0  0  0  0  0  0
   29.2995    4.9592   12.5776 H   0  0  0  0  0  0  0  0  0  0  0  0
   30.2645    3.6066   12.9608 H   0  0  0  0  0  0  0  0  0  0  0  0
   28.9199    8.1189   11.0797 C   0  0  0  0  0  0  0  0  0  0  0  0
   29.7065    8.1035   11.6969 C   0  0  0  0  0  0  0  0  0  0  0  0
   29.5748    7.9151   12.6701 C   0  0  0  0  0  0  0  0  0  0  0  0
   29.6972    6.9866   13.0207 O   0  0  0  0  0  0  0  0  0  0  0  0
   29.3206    8.6552   13.2928 N   0  0  0  0  0  0  0  0  0  0  0  0
   29.2001    9.5693   12.9477 H   0  0  0  0  0  0  0  0  0  0  0  0
   29.1909    8.4696   14.2509 H   0  0  0  0  0  0  0  0  0  0  0  0
   30.0846    8.6054    4.7865 C   0  0  0  0  0  0  0  0  0  0  0  0
   29.6601    7.9972    4.1157 O   0  0  0  0  0  0  0  0  0  0  0  0
   29.3165    8.3577    3.2832 H   0  0  0  0  0  0  0  0  0  0  0  0
   32.7553    5.9919    5.3817 C   0  0  0  0  0  0  0  0  0  0  0  0
   32.3044    5.1243    5.1720 C   0  0  0  0  0  0  0  0  0  0  0  0
   31.7452    4.9325    4.3655 C   0  0  0  0  0  0  0  0  0  0  0  0
   31.4287    3.9858    4.4269 N   0  0  0  0  0  0  0  0  0  0  0  0
   31.7924    3.5927    5.2715 C   0  0  0  0  0  0  0  0  0  0  0  0
   32.3336    4.2963    5.7319 N   0  0  0  0  0  0  0  0  0  0  0  0
   32.8113    4.1922    6.5864 H   0  0  0  0  0  0  0  0  0  0  0  0
 95 96  1  0  0  0
 95 97  1  0  0  0
 95 98  1  0  0  0
 96 91  1  0  0  0
 96 99  1  0  0  0
 91 92  2  0  0  0
 91 93  1  0  0  0
 93 90  1  0  0  0
 93 94  1  0  0  0
 90103  1  0  0  0
 90 86  1  0  0  0
103104  1  0  0  0
104105  1  0  0  0
105106  2  0  0  0
105107  1  0  0  0
107108  1  0  0  0
107109  1  0  0  0
 86 87  2  0  0  0
 86 88  1  0  0  0
 88 85  1  0  0  0
 88 89  1  0  0  0
 85110  1  0  0  0
 85 81  1  0  0  0
110111  1  0  0  0
111112  1  0  0  0
112113  2  0  0  0
112114  1  0  0  0
114115  1  0  0  0
114116  1  0  0  0
 81 82  2  0  0  0
 81 83  1  0  0  0
 83 79  1  0  0  0
 83 84  1  0  0  0
 79 80  1  0  0  0
 79 75  1  0  0  0
 75 76  2  0  0  0
 75 77  1  0  0  0
 77 74  1  0  0  0
 77 78  1  0  0  0
 74117  1  0  0  0
 74 70  1  0  0  0
117118  1  0  0  0
118119  1  0  0  0
 70 71  2  0  0  0
 70 72  1  0  0  0
 72 69  1  0  0  0
 72 73  1  0  0  0
 69120  1  0  0  0
 69 65  1  0  0  0
120121  1  0  0  0
121125  1  0  0  0
121122  2  0  0  0
122123  1  0  0  0
123124  2  0  0  0
124125  1  0  0  0
125126  1  0  0  0
 65 66  2  0  0  0
 65 67  1  0  0  0
 67  1  1  0  0  0
 67 68  1  0  0  0
  1  2  1  0  0  0
  1 10  1  0  0  0
  2  8  2  0  0  0
  2  3  1  0  0  0
  3  4  2  0  0  0
  4  5  1  0  0  0
  5  6  1  0  0  0
  5  7  2  0  0  0
  6  9  1  0  0  0
  7  8  1  0  0  0
 10 11  2  0  0  0
 10 12  1  0  0  0
 12 14  1  0  0  0
 12 13  1  0  0  0
 14 58  1  0  0  0
 14 15  1  0  0  0
 58 59  1  0  0  0
 59 60  1  0  0  0
 60 61  1  0  0  0
 61 62  1  0  0  0
 62 63  1  0  0  0
 62 64  1  0  0  0
 15 16  2  0  0  0
 15 17  1  0  0  0
 17 19  1  0  0  0
 17 18  1  0  0  0
 19 51  1  0  0  0
 19 20  1  0  0  0
 51 52  1  0  0  0
 52 53  1  0  0  0
 53 54  2  0  0  0
 53 55  1  0  0  0
 55 56  1  0  0  0
 55 57  1  0  0  0
 20 21  2  0  0  0
 20 22  1  0  0  0
 22 24  1  0  0  0
 22 23  1  0  0  0
 24 44  1  0  0  0
 24 25  1  0  0  0
 44 45  1  0  0  0
 45 49  1  0  0  0
 45 46  2  0  0  0
 46 47  1  0  0  0
 47 48  2  0  0  0
 48 49  1  0  0  0
 49 50  1  0  0  0
 25 26  2  0  0  0
 25 27  1  0  0  0
 27 29  1  0  0  0
 27 28  1  0  0  0
 29 41  1  0  0  0
 29 30  1  0  0  0
 41 42  1  0  0  0
 42 43  1  0  0  0
 30 31  2  0  0  0
 30 32  1  0  0  0
 32 36  1  0  0  0
 32 33  1  0  0  0
 33 34  1  0  0  0
 34 35  1  0  0  0
 35 36  1  0  0  0
 36 37  1  0  0  0
 37 38  1  0  0  0
 37 39  2  0  0  0
 38 40  1  0  0  0
 99100  1  0  0  0
 99101  1  0  0  0
100102  1  0  0  0
M  END
> <minimizedAffinity>
-4.39903

$$$$



126129  0  0  0  0  0  0  0  0999 V2000
   35.6032    9.2106    6.2952 C   0  0  0  0  0  0  0  0  0  0  0  0
   36.5618    9.0009    6.1028 C   0  0  0  0  0  0  0  0  0  0  0  0
   36.8133    8.1070    5.7316 C   0  0  0  0  0  0  0  0  0  0  0  0
   37.7720    7.8973    5.5392 C   0  0  0  0  0  0  0  0  0  0  0  0
   38.4791    8.5813    5.7181 C   0  0  0  0  0  0  0  0  0  0  0  0
   39.4377    8.3715    5.5257 O   0  0  0  0  0  0  0  0  0  0  0  0
   38.2277    9.4752    6.0893 C   0  0  0  0  0  0  0  0  0  0  0  0
   37.2690    9.6849    6.2817 C   0  0  0  0  0  0  0  0  0  0  0  0
   39.6734    7.5340    5.1779 H   0  0  0  0  0  0  0  0  0  0  0  0
   35.3012    9.3491    7.2384 C   0  0  0  0  0  0  0  0  0  0  0  0
   35.8963    9.8196    7.8899 O   0  0  0  0  0  0  0  0  0  0  0  0
   34.4042    9.0171    7.5300 N   0  0  0  0  0  0  0  0  0  0  0  0
   33.8184    8.5538    6.8886 H   0  0  0  0  0  0  0  0  0  0  0  0
   34.1022    9.1555    8.4733 C   0  0  0  0  0  0  0  0  0  0  0  0
   33.5799    9.9730    8.7162 C   0  0  0  0  0  0  0  0  0  0  0  0
   33.7070   10.3997    9.6115 O   0  0  0  0  0  0  0  0  0  0  0  0
   32.9305   10.3636    8.0637 N   0  0  0  0  0  0  0  0  0  0  0  0
   32.8055    9.9434    7.1822 H   0  0  0  0  0  0  0  0  0  0  0  0
   32.4083   11.1811    8.3066 C   0  0  0  0  0  0  0  0  0  0  0  0
   31.5222   11.0914    8.7614 C   0  0  0  0  0  0  0  0  0  0  0  0
   31.3848   11.4846    9.6706 O   0  0  0  0  0  0  0  0  0  0  0  0
   30.7735   10.6085    8.3071 N   0  0  0  0  0  0  0  0  0  0  0  0
   30.9088   10.2214    7.4121 H   0  0  0  0  0  0  0  0  0  0  0  0
   29.8875   10.5189    8.7619 C   0  0  0  0  0  0  0  0  0  0  0  0
   29.1907   11.2263    8.6431 C   0  0  0  0  0  0  0  0  0  0  0  0
   28.7042   11.5874    9.4387 O   0  0  0  0  0  0  0  0  0  0  0  0
   28.9804   11.5724    7.7288 N   0  0  0  0  0  0  0  0  0  0  0  0
   29.4594   11.2168    6.9457 H   0  0  0  0  0  0  0  0  0  0  0  0
   28.2836   12.2798    7.6101 C   0  0  0  0  0  0  0  0  0  0  0  0
   28.5556   13.2205    7.4076 C   0  0  0  0  0  0  0  0  0  0  0  0
   28.4515   13.9317    8.1028 O   0  0  0  0  0  0  0  0  0  0  0  0
   28.9317   13.4501    6.5098 N   0  0  0  0  0  0  0  0  0  0  0  0
   29.0743   12.8134    5.7520 C   0  0  0  0  0  0  0  0  0  0  0  0
   29.4619   13.3265    4.9862 C   0  0  0  0  0  0  0  0  0  0  0  0
   29.5588   14.2802    5.2707 C   0  0  0  0  0  0  0  0  0  0  0  0
   29.2311   14.3566    6.2123 C   0  0  0  0  0  0  0  0  0  0  0  0
   29.2070   15.1927    6.7603 C   0  0  0  0  0  0  0  0  0  0  0  0
   30.0213   15.4857    7.2615 O   0  0  0  0  0  0  0  0  0  0  0  0
   28.3687   15.7360    6.8071 O   0  0  0  0  0  0  0  0  0  0  0  0
   30.8068   14.9767    7.2177 H   0  0  0  0  0  0  0  0  0  0  0  0
   27.3148   12.0464    7.6937 C   0  0  0  0  0  0  0  0  0  0  0  0
   26.8786   11.4676    7.0048 S   0  0  0  0  0  0  0  0  0  0  0  0
   27.6029   10.9978    5.9539 H   0  0  0  0  0  0  0  0  0  0  0  0
   29.6982    9.7219    9.3355 C   0  0  0  0  0  0  0  0  0  0  0  0
   29.5071    8.8359    8.9131 C   0  0  0  0  0  0  0  0  0  0  0  0
   28.6093    8.4017    8.8386 C   0  0  0  0  0  0  0  0  0  0  0  0
   28.7275    7.5260    8.3705 N   0  0  0  0  0  0  0  0  0  0  0  0
   29.6983    7.4189    8.1557 C   0  0  0  0  0  0  0  0  0  0  0  0
   30.1801    8.2286    8.4911 N   0  0  0  0  0  0  0  0  0  0  0  0
   31.1472    8.3979    8.4185 H   0  0  0  0  0  0  0  0  0  0  0  0
   32.7721   12.0881    8.0947 C   0  0  0  0  0  0  0  0  0  0  0  0
   32.9988   12.3279    7.1507 C   0  0  0  0  0  0  0  0  0  0  0  0
   32.8097   13.2486    6.8095 C   0  0  0  0  0  0  0  0  0  0  0  0
   32.6817   13.4022    5.8296 O   0  0  0  0  0  0  0  0  0  0  0  0
   32.7485   14.0157    7.4480 N   0  0  0  0  0  0  0  0  0  0  0  0
   32.8745   13.8645    8.4126 H   0  0  0  0  0  0  0  0  0  0  0  0
   32.5623   14.9222    7.1120 H   0  0  0  0  0  0  0  0  0  0  0  0
   34.3225    8.4765    9.1736 C   0  0  0  0  0  0  0  0  0  0  0  0
   33.8494    7.5955    9.1821 C   0  0  0  0  0  0  0  0  0  0  0  0
   34.0292    6.9385    9.9142 C   0  0  0  0  0  0  0  0  0  0  0  0
   33.7171    5.9926    9.8250 C   0  0  0  0  0  0  0  0  0  0  0  0
   33.2789    5.5356   10.5991 N   0  0  0  0  0  0  0  0  0  0  0  0
   33.1504    6.0343   11.4796 H   0  0  0  0  0  0  0  0  0  0  0  0
   32.9606    4.5709   10.5082 H   0  0  0  0  0  0  0  0  0  0  0  0
   34.6668   10.1813    5.2085 C   0  0  0  0  0  0  0  0  0  0  0  0
   35.0437   11.0095    5.6235 O   0  0  0  0  0  0  0  0  0  0  0  0
   34.9465    9.2820    5.5444 N   0  0  0  0  0  0  0  0  0  0  0  0
   34.5755    8.4667    5.1359 H   0  0  0  0  0  0  0  0  0  0  0  0
   34.0101   10.2527    4.4577 C   0  0  0  0  0  0  0  0  0  0  0  0
   34.3747   11.1023    2.9931 C   0  0  0  0  0  0  0  0  0  0  0  0
   34.8216   10.2848    2.6300 O   0  0  0  0  0  0  0  0  0  0  0  0
   33.9690   11.0863    3.9070 N   0  0  0  0  0  0  0  0  0  0  0  0
   33.5290   11.8912    4.2645 H   0  0  0  0  0  0  0  0  0  0  0  0
   34.3335   11.9360    2.4423 C   0  0  0  0  0  0  0  0  0  0  0  0
   32.8664   12.7569    2.0255 C   0  0  0  0  0  0  0  0  0  0  0  0
   32.7771   12.1835    1.2111 O   0  0  0  0  0  0  0  0  0  0  0  0
   33.6447   12.6331    2.6411 N   0  0  0  0  0  0  0  0  0  0  0  0
   33.7327   13.1975    3.4429 H   0  0  0  0  0  0  0  0  0  0  0  0
   32.1776   13.4540    2.2243 C   0  0  0  0  0  0  0  0  0  0  0  0
   31.3009   13.4420    1.7435 C   0  0  0  0  0  0  0  0  0  0  0  0
   32.4117   15.1224    2.6258 C   0  0  0  0  0  0  0  0  0  0  0  0
   32.2701   15.3728    1.6681 O   0  0  0  0  0  0  0  0  0  0  0  0
   32.3655   14.1630    2.9039 N   0  0  0  0  0  0  0  0  0  0  0  0
   32.5048   13.9166    3.8468 H   0  0  0  0  0  0  0  0  0  0  0  0
   32.5996   15.8316    3.3055 C   0  0  0  0  0  0  0  0  0  0  0  0
   34.2179   15.8523    3.9222 C   0  0  0  0  0  0  0  0  0  0  0  0
   34.5438   16.2279    3.0546 O   0  0  0  0  0  0  0  0  0  0  0  0
   33.2459   15.6542    4.0476 N   0  0  0  0  0  0  0  0  0  0  0  0
   32.9250   15.2844    4.9018 H   0  0  0  0  0  0  0  0  0  0  0  0
   34.8642   15.6749    4.6644 C   0  0  0  0  0  0  0  0  0  0  0  0
   34.9261   16.9921    5.7874 C   0  0  0  0  0  0  0  0  0  0  0  0
   35.3359   17.5726    5.0839 O   0  0  0  0  0  0  0  0  0  0  0  0
   34.6902   16.0432    5.5777 N   0  0  0  0  0  0  0  0  0  0  0  0
   34.2867   15.4716    6.2703 H   0  0  0  0  0  0  0  0  0  0  0  0
   33.8630   17.2185    7.1360 N   0  0  0  0  0  0  0  0  0  0  0  0
   34.7521   17.3604    6.7007 C   0  0  0  0  0  0  0  0  0  0  0  0
   33.6855   17.5941    8.0675 H   0  0  0  0  0  0  0  0  0  0  0  0
   33.1337   16.6982    6.6484 H   0  0  0  0  0  0  0  0  0  0  0  0
   35.4671   17.8705    7.1787 C   0  0  0  0  0  0  0  0  0  0  0  0
   36.2285   17.3830    7.6062 O   0  0  0  0  0  0  0  0  0  0  0  0
   35.4208   18.8681    7.2293 C   0  0  0  0  0  0  0  0  0  0  0  0
   36.2734   16.4153    7.5571 H   0  0  0  0  0  0  0  0  0  0  0  0
   35.6845   15.1291    4.4934 C   0  0  0  0  0  0  0  0  0  0  0  0
   35.8009   14.2457    4.9473 C   0  0  0  0  0  0  0  0  0  0  0  0
   36.7168   13.8633    5.0698 C   0  0  0  0  0  0  0  0  0  0  0  0
   37.3406   14.2647    5.7404 O   0  0  0  0  0  0  0  0  0  0  0  0
   37.0088   13.0795    4.5217 N   0  0  0  0  0  0  0  0  0  0  0  0
   36.3946   12.6844    3.8616 H   0  0  0  0  0  0  0  0  0  0  0  0
   37.9104   12.7031    4.6424 H   0  0  0  0  0  0  0  0  0  0  0  0
   32.1412   16.7181    3.2429 C   0  0  0  0  0  0  0  0  0  0  0  0
   31.4436   16.9688    3.9141 C   0  0  0  0  0  0  0  0  0  0  0  0
   31.3200   17.9268    4.1727 C   0  0  0  0  0  0  0  0  0  0  0  0
   31.6872   18.2620    5.0403 O   0  0  0  0  0  0  0  0  0  0  0  0
   30.8289   18.5497    3.5636 N   0  0  0  0  0  0  0  0  0  0  0  0
   30.4673   18.2198    2.7095 H   0  0  0  0  0  0  0  0  0  0  0  0
   30.7072   19.4929    3.8182 H   0  0  0  0  0  0  0  0  0  0  0  0
   34.9812   12.0725    1.6928 C   0  0  0  0  0  0  0  0  0  0  0  0
   35.7705   12.6737    1.8172 O   0  0  0  0  0  0  0  0  0  0  0  0
   36.3988   12.8061    1.0901 H   0  0  0  0  0  0  0  0  0  0  0  0
   33.3946    9.4903    4.2577 C   0  0  0  0  0  0  0  0  0  0  0  0
   32.4694    9.4818    4.6370 C   0  0  0  0  0  0  0  0  0  0  0  0
   32.0679    8.7524    5.1909 C   0  0  0  0  0  0  0  0  0  0  0  0
   31.1336    9.0210    5.4253 N   0  0  0  0  0  0  0  0  0  0  0  0
   30.9577    9.9165    5.0163 C   0  0  0  0  0  0  0  0  0  0  0  0
   31.7833   10.2012    4.5292 N   0  0  0  0  0  0  0  0  0  0  0  0
   31.9001   11.0422    4.0308 H   0  0  0  0  0  0  0  0  0  0  0  0
 95 96  1  0  0  0
 95 97  1  0  0  0
 95 98  1  0  0  0
 96 91  1  0  0  0
 96 99  1  0  0  0
 91 92  2  0  0  0
 91 93  1  0  0  0
 93 90  1  0  0  0
 93 94  1  0  0  0
 90103  1  0  0  0
 90 86  1  0  0  0
103104  1  0  0  0
104105  1  0  0  0
105106  2  0  0  0
105107  1  0  0  0
107108  1  0  0  0
107109  1  0  0  0
 86 87  2  0  0  0
 86 88  1  0  0  0
 88 85  1  0  0  0
 88 89  1  0  0  0
 85110  1  0  0  0
 85 81  1  0  0  0
110111  1  0  0  0
111112  1  0  0  0
112113  2  0  0  0
112114  1  0  0  0
114115  1  0  0  0
114116  1  0  0  0
 81 82  2  0  0  0
 81 83  1  0  0  0
 83 79  1  0  0  0
 83 84  1  0  0  0
 79 80  1  0  0  0
 79 75  1  0  0  0
 75 76  2  0  0  0
 75 77  1  0  0  0
 77 74  1  0  0  0
 77 78  1  0  0  0
 74117  1  0  0  0
 74 70  1  0  0  0
117118  1  0  0  0
118119  1  0  0  0
 70 71  2  0  0  0
 70 72  1  0  0  0
 72 69  1  0  0  0
 72 73  1  0  0  0
 69120  1  0  0  0
 69 65  1  0  0  0
120121  1  0  0  0
121125  1  0  0  0
121122  2  0  0  0
122123  1  0  0  0
123124  2  0  0  0
124125  1  0  0  0
125126  1  0  0  0
 65 66  2  0  0  0
 65 67  1  0  0  0
 67  1  1  0  0  0
 67 68  1  0  0  0
  1  2  1  0  0  0
  1 10  1  0  0  0
  2  8  2  0  0  0
  2  3  1  0  0  0
  3  4  2  0  0  0
  4  5  1  0  0  0
  5  6  1  0  0  0
  5  7  2  0  0  0
  6  9  1  0  0  0
  7  8  1  0  0  0
 10 11  2  0  0  0
 10 12  1  0  0  0
 12 14  1  0  0  0
 12 13  1  0  0  0
 14 58  1  0  0  0
 14 15  1  0  0  0
 58 59  1  0  0  0
 59 60  1  0  0  0
 60 61  1  0  0  0
 61 62  1  0  0  0
 62 63  1  0  0  0
 62 64  1  0  0  0
 15 16  2  0  0  0
 15 17  1  0  0  0
 17 19  1  0  0  0
 17 18  1  0  0  0
 19 51  1  0  0  0
 19 20  1  0  0  0
 51 52  1  0  0  0
 52 53  1  0  0  0
 53 54  2  0  0  0
 53 55  1  0  0  0
 55 56  1  0  0  0
 55 57  1  0  0  0
 20 21  2  0  0  0
 20 22  1  0  0  0
 22 24  1  0  0  0
 22 23  1  0  0  0
 24 44  1  0  0  0
 24 25  1  0  0  0
 44 45  1  0  0  0
 45 49  1  0  0  0
 45 46  2  0  0  0
 46 47  1  0  0  0
 47 48  2  0  0  0
 48 49  1  0  0  0
 49 50  1  0  0  0
 25 26  2  0  0  0
 25 27  1  0  0  0
 27 29  1  0  0  0
 27 28  1  0  0  0
 29 41  1  0  0  0
 29 30  1  0  0  0
 41 42  1  0  0  0
 42 43  1  0  0  0
 30 31  2  0  0  0
 30 32  1  0  0  0
 32 36  1  0  0  0
 32 33  1  0  0  0
 33 34  1  0  0  0
 34 35  1  0  0  0
 35 36  1  0  0  0
 36 37  1  0  0  0
 37 38  1  0  0  0
 37 39  2  0  0  0
 38 40  1  0  0  0
 99100  1  0  0  0
 99101  1  0  0  0
100102  1  0  0  0
M  END
> <minimizedAffinity>
-4.37461

$$$$



126129  0  0  0  0  0  0  0  0999 V2000
   30.9118    9.7456    9.3563 C   0  0  0  0  0  0  0  0  0  0  0  0
   30.2236   10.4711    9.3677 C   0  0  0  0  0  0  0  0  0  0  0  0
   29.9421   10.9067    8.5127 C   0  0  0  0  0  0  0  0  0  0  0  0
   29.2538   11.6321    8.5242 C   0  0  0  0  0  0  0  0  0  0  0  0
   28.8472   11.9220    9.3906 C   0  0  0  0  0  0  0  0  0  0  0  0
   28.1590   12.6474    9.4020 O   0  0  0  0  0  0  0  0  0  0  0  0
   29.1288   11.4864   10.2456 C   0  0  0  0  0  0  0  0  0  0  0  0
   29.8170   10.7609   10.2341 C   0  0  0  0  0  0  0  0  0  0  0  0
   27.8952   13.0555    8.6009 H   0  0  0  0  0  0  0  0  0  0  0  0
   31.8405    9.9424    9.0420 C   0  0  0  0  0  0  0  0  0  0  0  0
   32.4882   10.3997    9.6514 O   0  0  0  0  0  0  0  0  0  0  0  0
   32.1215    9.6819    8.1184 N   0  0  0  0  0  0  0  0  0  0  0  0
   31.4839    9.2317    7.5184 H   0  0  0  0  0  0  0  0  0  0  0  0
   33.0503    9.8787    7.8041 C   0  0  0  0  0  0  0  0  0  0  0  0
   33.2052   10.5841    7.1125 C   0  0  0  0  0  0  0  0  0  0  0  0
   32.8720   10.4509    6.1791 O   0  0  0  0  0  0  0  0  0  0  0  0
   33.6933   11.4228    7.3542 N   0  0  0  0  0  0  0  0  0  0  0  0
   34.0213   11.5539    8.2732 H   0  0  0  0  0  0  0  0  0  0  0  0
   33.8481   12.1282    6.6626 C   0  0  0  0  0  0  0  0  0  0  0  0
   34.7454   12.2157    6.2299 C   0  0  0  0  0  0  0  0  0  0  0  0
   35.5674   11.9262    6.7203 O   0  0  0  0  0  0  0  0  0  0  0  0
   34.8207   12.5927    5.3067 N   0  0  0  0  0  0  0  0  0  0  0  0
   34.0114   12.8777    4.8239 H   0  0  0  0  0  0  0  0  0  0  0  0
   35.7179   12.6802    4.8739 C   0  0  0  0  0  0  0  0  0  0  0  0
   36.0401   11.9737    4.2439 C   0  0  0  0  0  0  0  0  0  0  0  0
   35.5169   11.7641    3.4178 O   0  0  0  0  0  0  0  0  0  0  0  0
   36.8855   11.4767    4.4398 N   0  0  0  0  0  0  0  0  0  0  0  0
   37.4005   11.6831    5.2530 H   0  0  0  0  0  0  0  0  0  0  0  0
   37.2077   10.7702    3.8097 C   0  0  0  0  0  0  0  0  0  0  0  0
   36.9817    9.8105    3.9767 C   0  0  0  0  0  0  0  0  0  0  0  0
   36.3767    9.3225    3.3476 O   0  0  0  0  0  0  0  0  0  0  0  0
   37.3607    9.3388    4.7729 N   0  0  0  0  0  0  0  0  0  0  0  0
   37.9716    9.7378    5.4567 C   0  0  0  0  0  0  0  0  0  0  0  0
   38.1838    9.0309    6.1315 C   0  0  0  0  0  0  0  0  0  0  0  0
   37.7040    8.1950    5.8646 C   0  0  0  0  0  0  0  0  0  0  0  0
   37.1953    8.3854    5.0250 C   0  0  0  0  0  0  0  0  0  0  0  0
   36.6220    7.7363    4.5252 C   0  0  0  0  0  0  0  0  0  0  0  0
   35.7236    7.4831    4.8842 O   0  0  0  0  0  0  0  0  0  0  0  0
   36.9469    7.3402    3.6664 O   0  0  0  0  0  0  0  0  0  0  0  0
   35.4191    7.8543    5.6889 H   0  0  0  0  0  0  0  0  0  0  0  0
   37.7560   11.0234    3.0126 C   0  0  0  0  0  0  0  0  0  0  0  0
   38.6951   11.3451    3.1334 S   0  0  0  0  0  0  0  0  0  0  0  0
   39.2267   11.4384    4.3817 H   0  0  0  0  0  0  0  0  0  0  0  0
   36.2929   13.4741    5.0713 C   0  0  0  0  0  0  0  0  0  0  0  0
   36.0230   14.3803    4.7457 C   0  0  0  0  0  0  0  0  0  0  0  0
   35.7825   15.1634    5.3193 C   0  0  0  0  0  0  0  0  0  0  0  0
   35.5571   15.9295    4.7175 N   0  0  0  0  0  0  0  0  0  0  0  0
   35.6581   15.6200    3.7720 C   0  0  0  0  0  0  0  0  0  0  0  0
   35.9461   14.6625    3.7895 N   0  0  0  0  0  0  0  0  0  0  0  0
   36.1229   14.0970    3.0032 H   0  0  0  0  0  0  0  0  0  0  0  0
   33.1058   12.7462    6.4038 C   0  0  0  0  0  0  0  0  0  0  0  0
   32.8418   13.4936    7.0134 C   0  0  0  0  0  0  0  0  0  0  0  0
   32.0872   14.1002    6.7632 C   0  0  0  0  0  0  0  0  0  0  0  0
   31.2190   13.7152    6.4499 O   0  0  0  0  0  0  0  0  0  0  0  0
   32.2008   15.0917    6.8262 N   0  0  0  0  0  0  0  0  0  0  0  0
   33.0555   15.4706    7.1346 H   0  0  0  0  0  0  0  0  0  0  0  0
   31.4579   15.6889    6.5798 H   0  0  0  0  0  0  0  0  0  0  0  0
   33.8241    9.3700    8.1814 C   0  0  0  0  0  0  0  0  0  0  0  0
   34.0246    8.4474    7.8516 C   0  0  0  0  0  0  0  0  0  0  0  0
   34.7704    7.9214    8.2603 C   0  0  0  0  0  0  0  0  0  0  0  0
   34.6824    6.9313    8.3700 C   0  0  0  0  0  0  0  0  0  0  0  0
   34.3819    6.3678    7.6005 N   0  0  0  0  0  0  0  0  0  0  0  0
   34.1652    6.8029    6.7037 H   0  0  0  0  0  0  0  0  0  0  0  0
   34.2921    5.3580    7.7124 H   0  0  0  0  0  0  0  0  0  0  0  0
   30.1819    8.2065    9.0428 C   0  0  0  0  0  0  0  0  0  0  0  0
   29.9330    8.5118    8.1235 O   0  0  0  0  0  0  0  0  0  0  0  0
   30.6713    8.8234    9.6591 N   0  0  0  0  0  0  0  0  0  0  0  0
   30.9163    8.5229   10.5640 H   0  0  0  0  0  0  0  0  0  0  0  0
   29.9414    7.2843    9.3456 C   0  0  0  0  0  0  0  0  0  0  0  0
   30.7864    5.9838    8.5744 C   0  0  0  0  0  0  0  0  0  0  0  0
   31.6057    6.2018    9.1047 O   0  0  0  0  0  0  0  0  0  0  0  0
   29.9542    6.5251    8.6949 N   0  0  0  0  0  0  0  0  0  0  0  0
   29.1476    6.3106    8.1728 H   0  0  0  0  0  0  0  0  0  0  0  0
   30.7992    5.2246    7.9237 C   0  0  0  0  0  0  0  0  0  0  0  0
   31.0046    5.3689    6.2100 C   0  0  0  0  0  0  0  0  0  0  0  0
   30.0135    5.4381    6.0970 O   0  0  0  0  0  0  0  0  0  0  0  0
   31.3975    5.2622    7.1233 N   0  0  0  0  0  0  0  0  0  0  0  0
   32.3733    5.1941    7.2346 H   0  0  0  0  0  0  0  0  0  0  0  0
   31.6029    5.4064    5.4096 C   0  0  0  0  0  0  0  0  0  0  0  0
   32.3347    4.7338    5.3003 C   0  0  0  0  0  0  0  0  0  0  0  0
   32.0829    6.9058    4.6874 C   0  0  0  0  0  0  0  0  0  0  0  0
   32.8298    6.9846    5.3475 O   0  0  0  0  0  0  0  0  0  0  0  0
   31.4694    6.1167    4.7184 N   0  0  0  0  0  0  0  0  0  0  0  0
   30.7340    6.0390    4.0685 H   0  0  0  0  0  0  0  0  0  0  0  0
   31.9494    7.6161    3.9962 C   0  0  0  0  0  0  0  0  0  0  0  0
   30.5412    8.6183    3.8847 C   0  0  0  0  0  0  0  0  0  0  0  0
   30.1014    7.9355    3.3013 O   0  0  0  0  0  0  0  0  0  0  0  0
   31.4652    8.4586    4.2322 N   0  0  0  0  0  0  0  0  0  0  0  0
   31.8982    9.1308    4.8065 H   0  0  0  0  0  0  0  0  0  0  0  0
   30.0570    9.4609    4.1207 C   0  0  0  0  0  0  0  0  0  0  0  0
   30.6265   10.9093    3.3606 C   0  0  0  0  0  0  0  0  0  0  0  0
   30.2000   10.6261    2.5015 O   0  0  0  0  0  0  0  0  0  0  0  0
   30.5549   10.3266    4.1701 N   0  0  0  0  0  0  0  0  0  0  0  0
   30.9747   10.6054    5.0159 H   0  0  0  0  0  0  0  0  0  0  0  0
   30.7111   12.5643    3.8642 N   0  0  0  0  0  0  0  0  0  0  0  0
   31.1245   11.7751    3.4101 C   0  0  0  0  0  0  0  0  0  0  0  0
   31.2190   13.4474    3.9147 H   0  0  0  0  0  0  0  0  0  0  0  0
   29.7816   12.4862    4.2770 H   0  0  0  0  0  0  0  0  0  0  0  0
   32.0357   11.8516    3.0054 C   0  0  0  0  0  0  0  0  0  0  0  0
   32.7668   11.2361    3.2998 O   0  0  0  0  0  0  0  0  0  0  0  0
   32.2158   12.5437    2.3065 C   0  0  0  0  0  0  0  0  0  0  0  0
   32.5920   10.5648    3.9778 H   0  0  0  0  0  0  0  0  0  0  0  0
   29.0748    9.4376    4.3072 C   0  0  0  0  0  0  0  0  0  0  0  0
   28.7394    9.5777    5.2388 C   0  0  0  0  0  0  0  0  0  0  0  0
   27.7597    9.5208    5.4313 C   0  0  0  0  0  0  0  0  0  0  0  0
   27.3999    8.7618    5.9739 O   0  0  0  0  0  0  0  0  0  0  0  0
   27.1397   10.2231    5.0812 N   0  0  0  0  0  0  0  0  0  0  0  0
   27.4939   10.9704    4.5471 H   0  0  0  0  0  0  0  0  0  0  0  0
   26.1753   10.1671    5.2708 H   0  0  0  0  0  0  0  0  0  0  0  0
   32.3001    7.4838    3.0691 C   0  0  0  0  0  0  0  0  0  0  0  0
   33.1814    7.8769    2.8072 C   0  0  0  0  0  0  0  0  0  0  0  0
   33.3886    8.0418    1.8429 C   0  0  0  0  0  0  0  0  0  0  0  0
   33.1496    8.9172    1.4227 O   0  0  0  0  0  0  0  0  0  0  0  0
   33.8347    7.3312    1.2987 N   0  0  0  0  0  0  0  0  0  0  0  0
   34.0700    6.4694    1.7123 H   0  0  0  0  0  0  0  0  0  0  0  0
   34.0386    7.4935    0.3493 H   0  0  0  0  0  0  0  0  0  0  0  0
   30.2138    4.4279    8.0734 C   0  0  0  0  0  0  0  0  0  0  0  0
   30.4478    3.7614    8.7813 O   0  0  0  0  0  0  0  0  0  0  0  0
   29.8798    2.9886    8.9265 H   0  0  0  0  0  0  0  0  0  0  0  0
   29.6880    7.1214   10.2992 C   0  0  0  0  0  0  0  0  0  0  0  0
   28.7393    6.9113   10.5356 C   0  0  0  0  0  0  0  0  0  0  0  0
   28.4120    6.0653   10.9564 C   0  0  0  0  0  0  0  0  0  0  0  0
   27.4217    6.1415   11.0736 N   0  0  0  0  0  0  0  0  0  0  0  0
   27.1372    7.0347   10.7252 C   0  0  0  0  0  0  0  0  0  0  0  0
   27.9516    7.5103   10.3927 N   0  0  0  0  0  0  0  0  0  0  0  0
   27.9737    8.4105    9.9945 H   0  0  0  0  0  0  0  0  0  0  0  0
 95 96  1  0  0  0
 95 97  1  0  0  0
 95 98  1  0  0  0
 96 91  1  0  0  0
 96 99  1  0  0  0
 91 92  2  0  0  0
 91 93  1  0  0  0
 93 90  1  0  0  0
 93 94  1  0  0  0
 90103  1  0  0  0
 90 86  1  0  0  0
103104  1  0  0  0
104105  1  0  0  0
105106  2  0  0  0
105107  1  0  0  0
107108  1  0  0  0
107109  1  0  0  0
 86 87  2  0  0  0
 86 88  1  0  0  0
 88 85  1  0  0  0
 88 89  1  0  0  0
 85110  1  0  0  0
 85 81  1  0  0  0
110111  1  0  0  0
111112  1  0  0  0
112113  2  0  0  0
112114  1  0  0  0
114115  1  0  0  0
114116  1  0  0  0
 81 82  2  0  0  0
 81 83  1  0  0  0
 83 79  1  0  0  0
 83 84  1  0  0  0
 79 80  1  0  0  0
 79 75  1  0  0  0
 75 76  2  0  0  0
 75 77  1  0  0  0
 77 74  1  0  0  0
 77 78  1  0  0  0
 74117  1  0  0  0
 74 70  1  0  0  0
117118  1  0  0  0
118119  1  0  0  0
 70 71  2  0  0  0
 70 72  1  0  0  0
 72 69  1  0  0  0
 72 73  1  0  0  0
 69120  1  0  0  0
 69 65  1  0  0  0
120121  1  0  0  0
121125  1  0  0  0
121122  2  0  0  0
122123  1  0  0  0
123124  2  0  0  0
124125  1  0  0  0
125126  1  0  0  0
 65 66  2  0  0  0
 65 67  1  0  0  0
 67  1  1  0  0  0
 67 68  1  0  0  0
  1  2  1  0  0  0
  1 10  1  0  0  0
  2  8  2  0  0  0
  2  3  1  0  0  0
  3  4  2  0  0  0
  4  5  1  0  0  0
  5  6  1  0  0  0
  5  7  2  0  0  0
  6  9  1  0  0  0
  7  8  1  0  0  0
 10 11  2  0  0  0
 10 12  1  0  0  0
 12 14  1  0  0  0
 12 13  1  0  0  0
 14 58  1  0  0  0
 14 15  1  0  0  0
 58 59  1  0  0  0
 59 60  1  0  0  0
 60 61  1  0  0  0
 61 62  1  0  0  0
 62 63  1  0  0  0
 62 64  1  0  0  0
 15 16  2  0  0  0
 15 17  1  0  0  0
 17 19  1  0  0  0
 17 18  1  0  0  0
 19 51  1  0  0  0
 19 20  1  0  0  0
 51 52  1  0  0  0
 52 53  1  0  0  0
 53 54  2  0  0  0
 53 55  1  0  0  0
 55 56  1  0  0  0
 55 57  1  0  0  0
 20 21  2  0  0  0
 20 22  1  0  0  0
 22 24  1  0  0  0
 22 23  1  0  0  0
 24 44  1  0  0  0
 24 25  1  0  0  0
 44 45  1  0  0  0
 45 49  1  0  0  0
 45 46  2  0  0  0
 46 47  1  0  0  0
 47 48  2  0  0  0
 48 49  1  0  0  0
 49 50  1  0  0  0
 25 26  2  0  0  0
 25 27  1  0  0  0
 27 29  1  0  0  0
 27 28  1  0  0  0
 29 41  1  0  0  0
 29 30  1  0  0  0
 41 42  1  0  0  0
 42 43  1  0  0  0
 30 31  2  0  0  0
 30 32  1  0  0  0
 32 36  1  0  0  0
 32 33  1  0  0  0
 33 34  1  0  0  0
 34 35  1  0  0  0
 35 36  1  0  0  0
 36 37  1  0  0  0
 37 38  1  0  0  0
 37 39  2  0  0  0
 38 40  1  0  0  0
 99100  1  0  0  0
 99101  1  0  0  0
100102  1  0  0  0
M  END
> <minimizedAffinity>
-4.32482

$$$$
