


126129  0  0  0  0  0  0  0  0999 V2000
   34.4803   12.6915   26.9959 C   0  0  0  0  0  0  0  0  0  0  0  0
   34.1709   11.7643   26.7846 C   0  0  0  0  0  0  0  0  0  0  0  0
   34.7448   11.1592   26.2328 C   0  0  0  0  0  0  0  0  0  0  0  0
   34.4353   10.2320   26.0215 C   0  0  0  0  0  0  0  0  0  0  0  0
   33.5520    9.9100   26.3621 C   0  0  0  0  0  0  0  0  0  0  0  0
   33.2426    8.9828   26.1509 O   0  0  0  0  0  0  0  0  0  0  0  0
   32.9781   10.5151   26.9140 C   0  0  0  0  0  0  0  0  0  0  0  0
   33.2875   11.4422   27.1252 C   0  0  0  0  0  0  0  0  0  0  0  0
   33.7803    8.4159   25.6338 H   0  0  0  0  0  0  0  0  0  0  0  0
   34.7815   12.9192   27.9218 C   0  0  0  0  0  0  0  0  0  0  0  0
   35.7368   13.1611   28.0916 O   0  0  0  0  0  0  0  0  0  0  0  0
   34.1273   12.9051   28.6780 N   0  0  0  0  0  0  0  0  0  0  0  0
   33.1868   12.6669   28.5108 H   0  0  0  0  0  0  0  0  0  0  0  0
   34.4284   13.1328   29.6040 C   0  0  0  0  0  0  0  0  0  0  0  0
   34.7178   12.4073   30.2284 C   0  0  0  0  0  0  0  0  0  0  0  0
   34.1982   11.5544   30.2788 O   0  0  0  0  0  0  0  0  0  0  0  0
   35.5268   12.5347   30.8022 N   0  0  0  0  0  0  0  0  0  0  0  0
   36.0383   13.3744   30.7525 H   0  0  0  0  0  0  0  0  0  0  0  0
   35.8162   11.8091   31.4266 C   0  0  0  0  0  0  0  0  0  0  0  0
   36.5925   11.2253   31.1890 C   0  0  0  0  0  0  0  0  0  0  0  0
   37.4761   11.6356   30.9633 O   0  0  0  0  0  0  0  0  0  0  0  0
   36.4853   10.2310   31.1772 N   0  0  0  0  0  0  0  0  0  0  0  0
   35.6154    9.8271   31.3994 H   0  0  0  0  0  0  0  0  0  0  0  0
   37.2616    9.6472   30.9396 C   0  0  0  0  0  0  0  0  0  0  0  0
   37.8322    9.2558   31.6616 C   0  0  0  0  0  0  0  0  0  0  0  0
   37.4209    8.6755   32.3645 O   0  0  0  0  0  0  0  0  0  0  0  0
   38.8140    9.4447   31.6807 N   0  0  0  0  0  0  0  0  0  0  0  0
   39.2188   10.0160   30.9886 H   0  0  0  0  0  0  0  0  0  0  0  0
   39.3845    9.0533   32.4026 C   0  0  0  0  0  0  0  0  0  0  0  0
   39.5124    9.5478   33.2623 C   0  0  0  0  0  0  0  0  0  0  0  0
   39.1269    9.1843   34.1104 O   0  0  0  0  0  0  0  0  0  0  0  0
   40.0257   10.4060   33.2738 N   0  0  0  0  0  0  0  0  0  0  0  0
   40.4477   10.8492   32.4829 C   0  0  0  0  0  0  0  0  0  0  0  0
   40.8899   11.6887   32.7987 C   0  0  0  0  0  0  0  0  0  0  0  0
   40.7411   11.7643   33.7847 C   0  0  0  0  0  0  0  0  0  0  0  0
   40.2070   10.9716   34.0783 C   0  0  0  0  0  0  0  0  0  0  0  0
   39.9070   10.7784   35.0124 C   0  0  0  0  0  0  0  0  0  0  0  0
   39.0092   11.0900   35.3238 O   0  0  0  0  0  0  0  0  0  0  0  0
   40.5047   10.2735   35.6353 O   0  0  0  0  0  0  0  0  0  0  0  0
   38.4492   11.5630   34.7402 H   0  0  0  0  0  0  0  0  0  0  0  0
   39.8273    8.1672   32.2649 C   0  0  0  0  0  0  0  0  0  0  0  0
   40.5266    8.0622   31.5578 S   0  0  0  0  0  0  0  0  0  0  0  0
   40.8755    9.1243   30.7834 H   0  0  0  0  0  0  0  0  0  0  0  0
   37.4673    9.4548   29.9801 C   0  0  0  0  0  0  0  0  0  0  0  0
   36.9054    8.8046   29.4689 C   0  0  0  0  0  0  0  0  0  0  0  0
   37.1554    7.8634   29.2413 C   0  0  0  0  0  0  0  0  0  0  0  0
   36.3993    7.4585   28.7273 N   0  0  0  0  0  0  0  0  0  0  0  0
   35.6818    8.1493   28.6372 C   0  0  0  0  0  0  0  0  0  0  0  0
   35.9947    8.9813   29.0956 N   0  0  0  0  0  0  0  0  0  0  0  0
   35.4939    9.8259   29.1668 H   0  0  0  0  0  0  0  0  0  0  0  0
   35.3293   11.6674   32.2885 C   0  0  0  0  0  0  0  0  0  0  0  0
   35.7335   11.9794   33.1482 C   0  0  0  0  0  0  0  0  0  0  0  0
   35.3369   11.6926   34.0203 C   0  0  0  0  0  0  0  0  0  0  0  0
   35.8465   11.0789   34.6235 O   0  0  0  0  0  0  0  0  0  0  0  0
   34.4309   12.0193   34.2892 N   0  0  0  0  0  0  0  0  0  0  0  0
   33.9293   12.6234   33.6953 H   0  0  0  0  0  0  0  0  0  0  0  0
   34.0405   11.7369   35.1477 H   0  0  0  0  0  0  0  0  0  0  0  0
   34.4401   14.0862   29.9057 C   0  0  0  0  0  0  0  0  0  0  0  0
   33.5799   14.5707   30.0652 C   0  0  0  0  0  0  0  0  0  0  0  0
   33.5511   15.5689   30.0125 C   0  0  0  0  0  0  0  0  0  0  0  0
   32.8617   16.0772   30.5285 C   0  0  0  0  0  0  0  0  0  0  0  0
   32.3310   16.7963   30.0800 N   0  0  0  0  0  0  0  0  0  0  0  0
   32.4929   17.0114   29.0961 H   0  0  0  0  0  0  0  0  0  0  0  0
   31.6277   17.3148   30.6063 H   0  0  0  0  0  0  0  0  0  0  0  0
   33.6666   13.9307   26.1004 C   0  0  0  0  0  0  0  0  0  0  0  0
   32.8361   13.7713   26.6343 O   0  0  0  0  0  0  0  0  0  0  0  0
   34.4886   13.3908   26.2812 N   0  0  0  0  0  0  0  0  0  0  0  0
   35.3061   13.5478   25.7556 H   0  0  0  0  0  0  0  0  0  0  0  0
   33.6749   14.6301   25.3857 C   0  0  0  0  0  0  0  0  0  0  0  0
   34.2213   14.1355   23.8183 C   0  0  0  0  0  0  0  0  0  0  0  0
   33.3505   13.6694   23.6617 O   0  0  0  0  0  0  0  0  0  0  0  0
   34.3835   14.6158   24.6803 N   0  0  0  0  0  0  0  0  0  0  0  0
   35.2408   15.0746   24.8344 H   0  0  0  0  0  0  0  0  0  0  0  0
   34.9300   14.1211   23.1129 C   0  0  0  0  0  0  0  0  0  0  0  0
   36.3247   13.0959   23.1735 C   0  0  0  0  0  0  0  0  0  0  0  0
   35.8079   12.3664   22.7254 O   0  0  0  0  0  0  0  0  0  0  0  0
   35.8857   13.9732   23.3672 N   0  0  0  0  0  0  0  0  0  0  0  0
   36.3944   14.6914   23.8083 H   0  0  0  0  0  0  0  0  0  0  0  0
   37.2804   12.9480   23.4278 C   0  0  0  0  0  0  0  0  0  0  0  0
   38.0007   13.0400   22.7403 C   0  0  0  0  0  0  0  0  0  0  0  0
   38.2656   12.0718   24.5509 C   0  0  0  0  0  0  0  0  0  0  0  0
   38.7800   11.6754   23.7905 O   0  0  0  0  0  0  0  0  0  0  0  0
   37.5159   12.7081   24.3696 N   0  0  0  0  0  0  0  0  0  0  0  0
   37.0095   13.0984   25.1182 H   0  0  0  0  0  0  0  0  0  0  0  0
   38.5011   11.8319   25.4928 C   0  0  0  0  0  0  0  0  0  0  0  0
   39.2192   12.9870   26.5652 C   0  0  0  0  0  0  0  0  0  0  0  0
   40.1203   12.7812   26.1834 O   0  0  0  0  0  0  0  0  0  0  0  0
   38.4097   12.5123   26.2198 N   0  0  0  0  0  0  0  0  0  0  0  0
   37.5226   12.7148   26.5957 H   0  0  0  0  0  0  0  0  0  0  0  0
   39.1277   13.6674   27.2922 C   0  0  0  0  0  0  0  0  0  0  0  0
   38.3571   15.1458   26.8229 C   0  0  0  0  0  0  0  0  0  0  0  0
   39.1757   15.4109   26.3136 O   0  0  0  0  0  0  0  0  0  0  0  0
   38.3331   14.2741   27.3122 N   0  0  0  0  0  0  0  0  0  0  0  0
   37.5270   14.0130   27.8137 H   0  0  0  0  0  0  0  0  0  0  0  0
   36.8140   15.6177   26.1934 N   0  0  0  0  0  0  0  0  0  0  0  0
   37.5623   15.7525   26.8429 C   0  0  0  0  0  0  0  0  0  0  0  0
   36.0033   16.2364   26.2137 H   0  0  0  0  0  0  0  0  0  0  0  0
   36.8613   14.8615   25.5105 H   0  0  0  0  0  0  0  0  0  0  0  0
   37.5158   16.4938   27.5124 C   0  0  0  0  0  0  0  0  0  0  0  0
   38.1589   17.2577   27.4579 O   0  0  0  0  0  0  0  0  0  0  0  0
   36.8263   16.4713   28.2363 C   0  0  0  0  0  0  0  0  0  0  0  0
   38.8278   17.2795   26.7557 H   0  0  0  0  0  0  0  0  0  0  0  0
   39.8310   13.7412   27.9993 C   0  0  0  0  0  0  0  0  0  0  0  0
   39.6120   13.5129   28.9480 C   0  0  0  0  0  0  0  0  0  0  0  0
   40.2824   13.6820   29.6705 C   0  0  0  0  0  0  0  0  0  0  0  0
   41.2094   13.3161   29.5881 O   0  0  0  0  0  0  0  0  0  0  0  0
   40.0258   14.2170   30.4755 N   0  0  0  0  0  0  0  0  0  0  0  0
   39.1131   14.5772   30.5565 H   0  0  0  0  0  0  0  0  0  0  0  0
   40.6857   14.3834   31.1867 H   0  0  0  0  0  0  0  0  0  0  0  0
   38.8281   10.9116   25.7075 C   0  0  0  0  0  0  0  0  0  0  0  0
   38.1969   10.2308   26.0792 C   0  0  0  0  0  0  0  0  0  0  0  0
   38.5343    9.3267   26.3414 C   0  0  0  0  0  0  0  0  0  0  0  0
   39.3419    9.2444   26.9252 O   0  0  0  0  0  0  0  0  0  0  0  0
   38.0640    8.5049   26.0197 N   0  0  0  0  0  0  0  0  0  0  0  0
   37.2688    8.5859   25.4449 H   0  0  0  0  0  0  0  0  0  0  0  0
   38.3962    7.6147   26.2778 H   0  0  0  0  0  0  0  0  0  0  0  0
   34.6828   14.2547   22.1532 C   0  0  0  0  0  0  0  0  0  0  0  0
   34.9042   15.1155   21.6950 O   0  0  0  0  0  0  0  0  0  0  0  0
   34.6645   15.2450   20.7640 H   0  0  0  0  0  0  0  0  0  0  0  0
   32.9744   15.3439   25.3764 C   0  0  0  0  0  0  0  0  0  0  0  0
   33.1105   16.1848   25.9001 C   0  0  0  0  0  0  0  0  0  0  0  0
   32.4193   16.6527   26.4507 C   0  0  0  0  0  0  0  0  0  0  0  0
   32.8433   17.4627   26.8561 N   0  0  0  0  0  0  0  0  0  0  0  0
   33.7967   17.4952   26.5559 C   0  0  0  0  0  0  0  0  0  0  0  0
   33.9617   16.7055   25.9651 N   0  0  0  0  0  0  0  0  0  0  0  0
   34.8130   16.4802   25.5247 H   0  0  0  0  0  0  0  0  0  0  0  0
 95 96  1  0  0  0
 95 97  1  0  0  0
 95 98  1  0  0  0
 96 91  1  0  0  0
 96 99  1  0  0  0
 91 92  2  0  0  0
 91 93  1  0  0  0
 93 90  1  0  0  0
 93 94  1  0  0  0
 90103  1  0  0  0
 90 86  1  0  0  0
103104  1  0  0  0
104105  1  0  0  0
105106  2  0  0  0
105107  1  0  0  0
107108  1  0  0  0
107109  1  0  0  0
 86 87  2  0  0  0
 86 88  1  0  0  0
 88 85  1  0  0  0
 88 89  1  0  0  0
 85110  1  0  0  0
 85 81  1  0  0  0
110111  1  0  0  0
111112  1  0  0  0
112113  2  0  0  0
112114  1  0  0  0
114115  1  0  0  0
114116  1  0  0  0
 81 82  2  0  0  0
 81 83  1  0  0  0
 83 79  1  0  0  0
 83 84  1  0  0  0
 79 80  1  0  0  0
 79 75  1  0  0  0
 75 76  2  0  0  0
 75 77  1  0  0  0
 77 74  1  0  0  0
 77 78  1  0  0  0
 74117  1  0  0  0
 74 70  1  0  0  0
117118  1  0  0  0
118119  1  0  0  0
 70 71  2  0  0  0
 70 72  1  0  0  0
 72 69  1  0  0  0
 72 73  1  0  0  0
 69120  1  0  0  0
 69 65  1  0  0  0
120121  1  0  0  0
121125  1  0  0  0
121122  2  0  0  0
122123  1  0  0  0
123124  2  0  0  0
124125  1  0  0  0
125126  1  0  0  0
 65 66  2  0  0  0
 65 67  1  0  0  0
 67  1  1  0  0  0
 67 68  1  0  0  0
  1  2  1  0  0  0
  1 10  1  0  0  0
  2  8  2  0  0  0
  2  3  1  0  0  0
  3  4  2  0  0  0
  4  5  1  0  0  0
  5  6  1  0  0  0
  5  7  2  0  0  0
  6  9  1  0  0  0
  7  8  1  0  0  0
 10 11  2  0  0  0
 10 12  1  0  0  0
 12 14  1  0  0  0
 12 13  1  0  0  0
 14 58  1  0  0  0
 14 15  1  0  0  0
 58 59  1  0  0  0
 59 60  1  0  0  0
 60 61  1  0  0  0
 61 62  1  0  0  0
 62 63  1  0  0  0
 62 64  1  0  0  0
 15 16  2  0  0  0
 15 17  1  0  0  0
 17 19  1  0  0  0
 17 18  1  0  0  0
 19 51  1  0  0  0
 19 20  1  0  0  0
 51 52  1  0  0  0
 52 53  1  0  0  0
 53 54  2  0  0  0
 53 55  1  0  0  0
 55 56  1  0  0  0
 55 57  1  0  0  0
 20 21  2  0  0  0
 20 22  1  0  0  0
 22 24  1  0  0  0
 22 23  1  0  0  0
 24 44  1  0  0  0
 24 25  1  0  0  0
 44 45  1  0  0  0
 45 49  1  0  0  0
 45 46  2  0  0  0
 46 47  1  0  0  0
 47 48  2  0  0  0
 48 49  1  0  0  0
 49 50  1  0  0  0
 25 26  2  0  0  0
 25 27  1  0  0  0
 27 29  1  0  0  0
 27 28  1  0  0  0
 29 41  1  0  0  0
 29 30  1  0  0  0
 41 42  1  0  0  0
 42 43  1  0  0  0
 30 31  2  0  0  0
 30 32  1  0  0  0
 32 36  1  0  0  0
 32 33  1  0  0  0
 33 34  1  0  0  0
 34 35  1  0  0  0
 35 36  1  0  0  0
 36 37  1  0  0  0
 37 38  1  0  0  0
 37 39  2  0  0  0
 38 40  1  0  0  0
 99100  1  0  0  0
 99101  1  0  0  0
100102  1  0  0  0
M  END
> <minimizedAffinity>
-7.34834

$$$$



126129  0  0  0  0  0  0  0  0999 V2000
   36.5742    9.8209   31.1874 C   0  0  0  0  0  0  0  0  0  0  0  0
   37.5316    9.6419   30.9608 C   0  0  0  0  0  0  0  0  0  0  0  0
   38.1371   10.3988   30.7147 C   0  0  0  0  0  0  0  0  0  0  0  0
   39.0945   10.2197   30.4881 C   0  0  0  0  0  0  0  0  0  0  0  0
   39.4464    9.2839   30.5076 C   0  0  0  0  0  0  0  0  0  0  0  0
   40.4038    9.1050   30.2810 O   0  0  0  0  0  0  0  0  0  0  0  0
   38.8410    8.5271   30.7537 C   0  0  0  0  0  0  0  0  0  0  0  0
   37.8836    8.7060   30.9803 C   0  0  0  0  0  0  0  0  0  0  0  0
   40.9711    9.8141   30.0504 H   0  0  0  0  0  0  0  0  0  0  0  0
   35.9252   10.0580   30.4645 C   0  0  0  0  0  0  0  0  0  0  0  0
   35.3351    9.3529   30.0713 O   0  0  0  0  0  0  0  0  0  0  0  0
   35.8663   11.0002   30.1349 N   0  0  0  0  0  0  0  0  0  0  0  0
   36.4472   11.6944   30.5220 H   0  0  0  0  0  0  0  0  0  0  0  0
   35.2173   11.2374   29.4119 C   0  0  0  0  0  0  0  0  0  0  0  0
   35.4953   11.1831   28.4529 C   0  0  0  0  0  0  0  0  0  0  0  0
   34.8809   10.7769   27.7765 O   0  0  0  0  0  0  0  0  0  0  0  0
   36.3876   11.5351   28.1703 N   0  0  0  0  0  0  0  0  0  0  0  0
   36.9924   11.9350   28.8362 H   0  0  0  0  0  0  0  0  0  0  0  0
   36.6656   11.4808   27.2112 C   0  0  0  0  0  0  0  0  0  0  0  0
   36.6449   12.2996   26.6376 C   0  0  0  0  0  0  0  0  0  0  0  0
   36.6092   12.2119   25.6421 O   0  0  0  0  0  0  0  0  0  0  0  0
   36.6598   13.2062   27.0594 N   0  0  0  0  0  0  0  0  0  0  0  0
   36.6950   13.2926   28.0395 H   0  0  0  0  0  0  0  0  0  0  0  0
   36.6391   14.0251   26.4858 C   0  0  0  0  0  0  0  0  0  0  0  0
   35.7632   14.4069   26.1910 C   0  0  0  0  0  0  0  0  0  0  0  0
   35.6309   14.6764   25.2371 O   0  0  0  0  0  0  0  0  0  0  0  0
   35.0196   14.5194   26.8501 N   0  0  0  0  0  0  0  0  0  0  0  0
   35.1499   14.2541   27.7891 H   0  0  0  0  0  0  0  0  0  0  0  0
   34.1437   14.9013   26.5553 C   0  0  0  0  0  0  0  0  0  0  0  0
   33.9410   15.8677   26.7134 C   0  0  0  0  0  0  0  0  0  0  0  0
   33.7285   16.4668   25.9414 O   0  0  0  0  0  0  0  0  0  0  0  0
   33.9507   16.2349   27.6435 N   0  0  0  0  0  0  0  0  0  0  0  0
   34.1503   15.7195   28.4769 C   0  0  0  0  0  0  0  0  0  0  0  0
   34.0855   16.3482   29.2518 C   0  0  0  0  0  0  0  0  0  0  0  0
   33.8458   17.2520   28.8974 C   0  0  0  0  0  0  0  0  0  0  0  0
   33.7625   17.1820   27.9034 C   0  0  0  0  0  0  0  0  0  0  0  0
   33.5316   17.9281   27.2790 C   0  0  0  0  0  0  0  0  0  0  0  0
   32.5743   18.1239   27.0662 O   0  0  0  0  0  0  0  0  0  0  0  0
   34.2579   18.4785   26.8672 O   0  0  0  0  0  0  0  0  0  0  0  0
   31.8937   17.6082   27.4520 H   0  0  0  0  0  0  0  0  0  0  0  0
   33.4704   14.3168   26.1023 C   0  0  0  0  0  0  0  0  0  0  0  0
   32.9707   13.6289   26.6288 S   0  0  0  0  0  0  0  0  0  0  0  0
   33.2068   13.4882   27.9607 H   0  0  0  0  0  0  0  0  0  0  0  0
   37.4943   14.4620   26.2070 C   0  0  0  0  0  0  0  0  0  0  0  0
   37.9960   15.0369   26.8533 C   0  0  0  0  0  0  0  0  0  0  0  0
   38.8294   14.7812   27.3433 C   0  0  0  0  0  0  0  0  0  0  0  0
   39.1009   15.5547   27.9159 N   0  0  0  0  0  0  0  0  0  0  0  0
   38.4352   16.2885   27.7799 C   0  0  0  0  0  0  0  0  0  0  0  0
   37.7524   15.9684   27.1231 N   0  0  0  0  0  0  0  0  0  0  0  0
   36.9765   16.4806   26.7991 H   0  0  0  0  0  0  0  0  0  0  0  0
   36.9643   10.6077   26.8259 C   0  0  0  0  0  0  0  0  0  0  0  0
   37.8684   10.2448   27.0513 C   0  0  0  0  0  0  0  0  0  0  0  0
   38.1203    9.3192   26.7689 C   0  0  0  0  0  0  0  0  0  0  0  0
   38.7457    9.1837   26.0004 O   0  0  0  0  0  0  0  0  0  0  0  0
   37.7468    8.5291   27.2550 N   0  0  0  0  0  0  0  0  0  0  0  0
   37.1311    8.6626   28.0115 H   0  0  0  0  0  0  0  0  0  0  0  0
   37.9948    7.6178   26.9770 H   0  0  0  0  0  0  0  0  0  0  0  0
   34.2903   11.5288   29.6481 C   0  0  0  0  0  0  0  0  0  0  0  0
   34.1442   12.4005   30.1161 C   0  0  0  0  0  0  0  0  0  0  0  0
   33.2231   12.7842   30.1822 C   0  0  0  0  0  0  0  0  0  0  0  0
   32.9089   13.1847   31.0429 C   0  0  0  0  0  0  0  0  0  0  0  0
   32.2244   13.9136   31.0348 N   0  0  0  0  0  0  0  0  0  0  0  0
   31.8466   14.2486   30.1485 H   0  0  0  0  0  0  0  0  0  0  0  0
   31.9039   14.3221   31.9127 H   0  0  0  0  0  0  0  0  0  0  0  0
   36.4141   10.5316   32.7588 C   0  0  0  0  0  0  0  0  0  0  0  0
   36.8709   11.3588   32.4312 O   0  0  0  0  0  0  0  0  0  0  0  0
   36.2658    9.7627   32.1369 N   0  0  0  0  0  0  0  0  0  0  0  0
   35.8161    8.9484   32.4593 H   0  0  0  0  0  0  0  0  0  0  0  0
   36.1057   10.4734   33.7083 C   0  0  0  0  0  0  0  0  0  0  0  0
   36.8413    9.3622   34.8146 C   0  0  0  0  0  0  0  0  0  0  0  0
   36.2606    8.6279   34.4633 O   0  0  0  0  0  0  0  0  0  0  0  0
   36.7639   10.2850   34.4371 N   0  0  0  0  0  0  0  0  0  0  0  0
   37.3357   11.0080   34.7830 H   0  0  0  0  0  0  0  0  0  0  0  0
   37.4995    9.1738   35.5435 C   0  0  0  0  0  0  0  0  0  0  0  0
   39.1644    8.7671   35.7940 C   0  0  0  0  0  0  0  0  0  0  0  0
   38.8887    7.9642   36.3226 O   0  0  0  0  0  0  0  0  0  0  0  0
   38.4698    9.3718   35.4045 N   0  0  0  0  0  0  0  0  0  0  0  0
   38.7412   10.1623   34.8841 H   0  0  0  0  0  0  0  0  0  0  0  0
   40.1347    8.9652   35.6550 C   0  0  0  0  0  0  0  0  0  0  0  0
   40.7364    9.0949   36.4431 C   0  0  0  0  0  0  0  0  0  0  0  0
   41.3277    8.5253   34.4790 C   0  0  0  0  0  0  0  0  0  0  0  0
   41.7835    7.9487   35.1570 O   0  0  0  0  0  0  0  0  0  0  0  0
   40.5032    9.0335   34.7280 N   0  0  0  0  0  0  0  0  0  0  0  0
   40.0545    9.6011   34.0604 H   0  0  0  0  0  0  0  0  0  0  0  0
   41.6963    8.5936   33.5519 C   0  0  0  0  0  0  0  0  0  0  0  0
   42.4128   10.0891   33.0520 C   0  0  0  0  0  0  0  0  0  0  0  0
   43.2477    9.8557   33.5503 O   0  0  0  0  0  0  0  0  0  0  0  0
   41.6371    9.4581   33.0527 N   0  0  0  0  0  0  0  0  0  0  0  0
   40.8151    9.6879   32.5621 H   0  0  0  0  0  0  0  0  0  0  0  0
   42.3536   10.9536   32.5528 C   0  0  0  0  0  0  0  0  0  0  0  0
   43.3049   11.2031   31.1271 C   0  0  0  0  0  0  0  0  0  0  0  0
   42.6310   10.6970   30.5889 O   0  0  0  0  0  0  0  0  0  0  0  0
   43.1662   11.3314   32.1090 N   0  0  0  0  0  0  0  0  0  0  0  0
   43.8297   11.8297   32.6390 H   0  0  0  0  0  0  0  0  0  0  0  0
   44.2112   12.5701   30.5702 N   0  0  0  0  0  0  0  0  0  0  0  0
   44.1176   11.5809   30.6833 C   0  0  0  0  0  0  0  0  0  0  0  0
   45.0400   12.9555   30.1176 H   0  0  0  0  0  0  0  0  0  0  0  0
   43.4778   13.1936   30.9075 H   0  0  0  0  0  0  0  0  0  0  0  0
   44.8365   10.9696   30.3526 C   0  0  0  0  0  0  0  0  0  0  0  0
   45.2725   10.3248   30.9805 O   0  0  0  0  0  0  0  0  0  0  0  0
   45.1196   11.0031   29.3941 C   0  0  0  0  0  0  0  0  0  0  0  0
   44.9979   10.2923   31.9103 H   0  0  0  0  0  0  0  0  0  0  0  0
   41.4819   11.4403   32.4975 C   0  0  0  0  0  0  0  0  0  0  0  0
   41.2494   12.1293   33.1840 C   0  0  0  0  0  0  0  0  0  0  0  0
   40.3030   12.4368   33.2833 C   0  0  0  0  0  0  0  0  0  0  0  0
   39.6301   11.8475   33.7303 O   0  0  0  0  0  0  0  0  0  0  0  0
   40.0297   13.3338   32.9357 N   0  0  0  0  0  0  0  0  0  0  0  0
   40.6923   13.9139   32.4957 H   0  0  0  0  0  0  0  0  0  0  0  0
   39.0980   13.6365   33.0335 H   0  0  0  0  0  0  0  0  0  0  0  0
   42.1241    7.7974   33.1239 C   0  0  0  0  0  0  0  0  0  0  0  0
   41.5574    7.1046   32.6780 C   0  0  0  0  0  0  0  0  0  0  0  0
   41.9591    6.4933   31.9962 C   0  0  0  0  0  0  0  0  0  0  0  0
   42.2182    6.8477   31.0977 O   0  0  0  0  0  0  0  0  0  0  0  0
   42.1016    5.5274   32.2129 N   0  0  0  0  0  0  0  0  0  0  0  0
   41.8465    5.1785   33.0974 H   0  0  0  0  0  0  0  0  0  0  0  0
   42.4971    4.9255   31.5416 H   0  0  0  0  0  0  0  0  0  0  0  0
   37.1874    8.7872   36.4113 C   0  0  0  0  0  0  0  0  0  0  0  0
   36.6423    9.3430   37.0390 O   0  0  0  0  0  0  0  0  0  0  0  0
   36.3396    8.9680   37.8808 H   0  0  0  0  0  0  0  0  0  0  0  0
   35.1390   10.6038   33.9289 C   0  0  0  0  0  0  0  0  0  0  0  0
   34.8258   11.4740   34.3090 C   0  0  0  0  0  0  0  0  0  0  0  0
   35.0166   11.8161   35.2291 C   0  0  0  0  0  0  0  0  0  0  0  0
   34.5755   12.7085   35.3247 N   0  0  0  0  0  0  0  0  0  0  0  0
   34.1122   12.9179   34.4635 C   0  0  0  0  0  0  0  0  0  0  0  0
   34.2669   12.1549   33.8359 N   0  0  0  0  0  0  0  0  0  0  0  0
   33.9284   12.0863   32.9140 H   0  0  0  0  0  0  0  0  0  0  0  0
 95 96  1  0  0  0
 95 97  1  0  0  0
 95 98  1  0  0  0
 96 91  1  0  0  0
 96 99  1  0  0  0
 91 92  2  0  0  0
 91 93  1  0  0  0
 93 90  1  0  0  0
 93 94  1  0  0  0
 90103  1  0  0  0
 90 86  1  0  0  0
103104  1  0  0  0
104105  1  0  0  0
105106  2  0  0  0
105107  1  0  0  0
107108  1  0  0  0
107109  1  0  0  0
 86 87  2  0  0  0
 86 88  1  0  0  0
 88 85  1  0  0  0
 88 89  1  0  0  0
 85110  1  0  0  0
 85 81  1  0  0  0
110111  1  0  0  0
111112  1  0  0  0
112113  2  0  0  0
112114  1  0  0  0
114115  1  0  0  0
114116  1  0  0  0
 81 82  2  0  0  0
 81 83  1  0  0  0
 83 79  1  0  0  0
 83 84  1  0  0  0
 79 80  1  0  0  0
 79 75  1  0  0  0
 75 76  2  0  0  0
 75 77  1  0  0  0
 77 74  1  0  0  0
 77 78  1  0  0  0
 74117  1  0  0  0
 74 70  1  0  0  0
117118  1  0  0  0
118119  1  0  0  0
 70 71  2  0  0  0
 70 72  1  0  0  0
 72 69  1  0  0  0
 72 73  1  0  0  0
 69120  1  0  0  0
 69 65  1  0  0  0
120121  1  0  0  0
121125  1  0  0  0
121122  2  0  0  0
122123  1  0  0  0
123124  2  0  0  0
124125  1  0  0  0
125126  1  0  0  0
 65 66  2  0  0  0
 65 67  1  0  0  0
 67  1  1  0  0  0
 67 68  1  0  0  0
  1  2  1  0  0  0
  1 10  1  0  0  0
  2  8  2  0  0  0
  2  3  1  0  0  0
  3  4  2  0  0  0
  4  5  1  0  0  0
  5  6  1  0  0  0
  5  7  2  0  0  0
  6  9  1  0  0  0
  7  8  1  0  0  0
 10 11  2  0  0  0
 10 12  1  0  0  0
 12 14  1  0  0  0
 12 13  1  0  0  0
 14 58  1  0  0  0
 14 15  1  0  0  0
 58 59  1  0  0  0
 59 60  1  0  0  0
 60 61  1  0  0  0
 61 62  1  0  0  0
 62 63  1  0  0  0
 62 64  1  0  0  0
 15 16  2  0  0  0
 15 17  1  0  0  0
 17 19  1  0  0  0
 17 18  1  0  0  0
 19 51  1  0  0  0
 19 20  1  0  0  0
 51 52  1  0  0  0
 52 53  1  0  0  0
 53 54  2  0  0  0
 53 55  1  0  0  0
 55 56  1  0  0  0
 55 57  1  0  0  0
 20 21  2  0  0  0
 20 22  1  0  0  0
 22 24  1  0  0  0
 22 23  1  0  0  0
 24 44  1  0  0  0
 24 25  1  0  0  0
 44 45  1  0  0  0
 45 49  1  0  0  0
 45 46  2  0  0  0
 46 47  1  0  0  0
 47 48  2  0  0  0
 48 49  1  0  0  0
 49 50  1  0  0  0
 25 26  2  0  0  0
 25 27  1  0  0  0
 27 29  1  0  0  0
 27 28  1  0  0  0
 29 41  1  0  0  0
 29 30  1  0  0  0
 41 42  1  0  0  0
 42 43  1  0  0  0
 30 31  2  0  0  0
 30 32  1  0  0  0
 32 36  1  0  0  0
 32 33  1  0  0  0
 33 34  1  0  0  0
 34 35  1  0  0  0
 35 36  1  0  0  0
 36 37  1  0  0  0
 37 38  1  0  0  0
 37 39  2  0  0  0
 38 40  1  0  0  0
 99100  1  0  0  0
 99101  1  0  0  0
100102  1  0  0  0
M  END
> <minimizedAffinity>
-7.24813

$$$$



126129  0  0  0  0  0  0  0  0999 V2000
   37.2947   10.6858   32.1707 C   0  0  0  0  0  0  0  0  0  0  0  0
   37.1051   10.2818   33.0656 C   0  0  0  0  0  0  0  0  0  0  0  0
   36.5672   10.7887   33.7392 C   0  0  0  0  0  0  0  0  0  0  0  0
   36.3777   10.3847   34.6342 C   0  0  0  0  0  0  0  0  0  0  0  0
   36.7260    9.4739   34.8555 C   0  0  0  0  0  0  0  0  0  0  0  0
   36.5365    9.0699   35.7504 O   0  0  0  0  0  0  0  0  0  0  0  0
   37.2639    8.9670   34.1819 C   0  0  0  0  0  0  0  0  0  0  0  0
   37.4535    9.3709   33.2870 C   0  0  0  0  0  0  0  0  0  0  0  0
   36.0325    9.5449   36.3816 H   0  0  0  0  0  0  0  0  0  0  0  0
   36.5617   10.7727   31.4960 C   0  0  0  0  0  0  0  0  0  0  0  0
   35.6389   11.0222   31.7896 O   0  0  0  0  0  0  0  0  0  0  0  0
   36.7516   10.6102   30.5278 N   0  0  0  0  0  0  0  0  0  0  0  0
   37.6601   10.3645   30.2388 H   0  0  0  0  0  0  0  0  0  0  0  0
   36.0186   10.6971   29.8530 C   0  0  0  0  0  0  0  0  0  0  0  0
   35.7537    9.9085   29.2981 C   0  0  0  0  0  0  0  0  0  0  0  0
   35.1663    9.1985   29.6866 O   0  0  0  0  0  0  0  0  0  0  0  0
   36.0761    9.8299   28.3548 N   0  0  0  0  0  0  0  0  0  0  0  0
   36.6544   10.5289   27.9725 H   0  0  0  0  0  0  0  0  0  0  0  0
   35.8112    9.0413   27.7999 C   0  0  0  0  0  0  0  0  0  0  0  0
   36.4475    8.2796   27.6777 C   0  0  0  0  0  0  0  0  0  0  0  0
   36.1726    7.4791   27.1451 O   0  0  0  0  0  0  0  0  0  0  0  0
   37.3587    8.3184   28.0880 N   0  0  0  0  0  0  0  0  0  0  0  0
   37.6293    9.1065   28.6123 H   0  0  0  0  0  0  0  0  0  0  0  0
   37.9949    7.5567   27.9657 C   0  0  0  0  0  0  0  0  0  0  0  0
   38.7599    7.6418   27.3274 C   0  0  0  0  0  0  0  0  0  0  0  0
   39.0320    6.8603   26.7660 O   0  0  0  0  0  0  0  0  0  0  0  0
   39.2529    8.5084   27.2504 N   0  0  0  0  0  0  0  0  0  0  0  0
   38.9850    9.2778   27.8031 H   0  0  0  0  0  0  0  0  0  0  0  0
   40.0179    8.5935   26.6121 C   0  0  0  0  0  0  0  0  0  0  0  0
   40.9581    8.5567   26.9507 C   0  0  0  0  0  0  0  0  0  0  0  0
   41.5724    7.8304   26.6423 O   0  0  0  0  0  0  0  0  0  0  0  0
   41.2840    9.2461   27.5977 N   0  0  0  0  0  0  0  0  0  0  0  0
   40.7493   10.0078   27.9638 C   0  0  0  0  0  0  0  0  0  0  0  0
   41.3367   10.5272   28.5845 C   0  0  0  0  0  0  0  0  0  0  0  0
   42.2342   10.0866   28.6019 C   0  0  0  0  0  0  0  0  0  0  0  0
   42.2016    9.2948   27.9920 C   0  0  0  0  0  0  0  0  0  0  0  0
   42.9545    8.6628   27.8087 C   0  0  0  0  0  0  0  0  0  0  0  0
   43.0588    7.8357   28.3611 O   0  0  0  0  0  0  0  0  0  0  0  0
   43.6031    8.8577   27.0730 O   0  0  0  0  0  0  0  0  0  0  0  0
   42.4510    7.6531   29.0505 H   0  0  0  0  0  0  0  0  0  0  0  0
   39.8427    8.7156   25.6351 C   0  0  0  0  0  0  0  0  0  0  0  0
   39.5750    9.6125   25.2833 S   0  0  0  0  0  0  0  0  0  0  0  0
   39.4491   10.6665   26.1335 H   0  0  0  0  0  0  0  0  0  0  0  0
   37.8662    6.7099   28.4818 C   0  0  0  0  0  0  0  0  0  0  0  0
   38.3651    6.5642   29.3361 C   0  0  0  0  0  0  0  0  0  0  0  0
   38.3195    7.1439   30.1497 C   0  0  0  0  0  0  0  0  0  0  0  0
   38.9234    6.7513   30.8432 N   0  0  0  0  0  0  0  0  0  0  0  0
   39.3423    5.9288   30.4584 C   0  0  0  0  0  0  0  0  0  0  0  0
   38.9972    5.8132   29.5269 N   0  0  0  0  0  0  0  0  0  0  0  0
   39.2377    5.0874   28.9067 H   0  0  0  0  0  0  0  0  0  0  0  0
   34.9101    9.0144   27.3673 C   0  0  0  0  0  0  0  0  0  0  0  0
   34.6968    9.6401   26.6170 C   0  0  0  0  0  0  0  0  0  0  0  0
   33.7502    9.9156   26.4494 C   0  0  0  0  0  0  0  0  0  0  0  0
   33.4345   10.8202   26.7360 O   0  0  0  0  0  0  0  0  0  0  0  0
   33.1193    9.2865   25.9953 N   0  0  0  0  0  0  0  0  0  0  0  0
   33.4302    8.3959   25.7132 H   0  0  0  0  0  0  0  0  0  0  0  0
   32.1874    9.5577   25.8303 H   0  0  0  0  0  0  0  0  0  0  0  0
   35.5506   11.5727   29.7332 C   0  0  0  0  0  0  0  0  0  0  0  0
   35.9801   12.3001   29.1979 C   0  0  0  0  0  0  0  0  0  0  0  0
   35.4936   13.1597   29.0416 C   0  0  0  0  0  0  0  0  0  0  0  0
   35.7541   13.9810   29.5490 C   0  0  0  0  0  0  0  0  0  0  0  0
   36.2159   14.7334   29.0792 N   0  0  0  0  0  0  0  0  0  0  0  0
   36.4211   14.6630   28.0825 H   0  0  0  0  0  0  0  0  0  0  0  0
   36.4816   15.5713   29.5967 H   0  0  0  0  0  0  0  0  0  0  0  0
   38.4436   11.9738   32.0264 C   0  0  0  0  0  0  0  0  0  0  0  0
   37.7476   12.6279   32.3226 O   0  0  0  0  0  0  0  0  0  0  0  0
   38.2172   11.0028   31.9505 N   0  0  0  0  0  0  0  0  0  0  0  0
   38.9024   10.3588   31.6589 H   0  0  0  0  0  0  0  0  0  0  0  0
   39.3661   12.2908   31.8061 C   0  0  0  0  0  0  0  0  0  0  0  0
   40.6639   11.5104   32.6468 C   0  0  0  0  0  0  0  0  0  0  0  0
   40.4322   12.0186   33.4763 O   0  0  0  0  0  0  0  0  0  0  0  0
   40.1309   11.6465   31.8118 N   0  0  0  0  0  0  0  0  0  0  0  0
   40.3590   11.1462   30.9951 H   0  0  0  0  0  0  0  0  0  0  0  0
   41.4286   10.8661   32.6524 C   0  0  0  0  0  0  0  0  0  0  0  0
   41.1820    9.1598   32.8181 C   0  0  0  0  0  0  0  0  0  0  0  0
   41.0138    9.0887   31.8349 O   0  0  0  0  0  0  0  0  0  0  0  0
   41.3894   10.0485   33.2268 N   0  0  0  0  0  0  0  0  0  0  0  0
   41.5550   10.1186   34.1948 H   0  0  0  0  0  0  0  0  0  0  0  0
   41.1427    8.3421   33.3925 C   0  0  0  0  0  0  0  0  0  0  0  0
   40.8569    8.4156   34.3479 C   0  0  0  0  0  0  0  0  0  0  0  0
   42.2639    7.0296   33.2509 C   0  0  0  0  0  0  0  0  0  0  0  0
   42.8920    7.4992   33.8714 O   0  0  0  0  0  0  0  0  0  0  0  0
   41.3893    7.4511   33.0115 N   0  0  0  0  0  0  0  0  0  0  0  0
   40.7709    6.9888   32.4006 H   0  0  0  0  0  0  0  0  0  0  0  0
   42.5106    6.1385   32.8698 C   0  0  0  0  0  0  0  0  0  0  0  0
   43.4830    6.0696   31.4382 C   0  0  0  0  0  0  0  0  0  0  0  0
   42.6745    6.2564   30.8801 O   0  0  0  0  0  0  0  0  0  0  0  0
   43.4010    6.0106   32.4330 N   0  0  0  0  0  0  0  0  0  0  0  0
   44.1969    5.8267   32.9825 H   0  0  0  0  0  0  0  0  0  0  0  0
   44.3734    5.9417   31.0014 C   0  0  0  0  0  0  0  0  0  0  0  0
   45.4816    7.2606   30.8216 C   0  0  0  0  0  0  0  0  0  0  0  0
   45.8039    7.1174   31.7573 O   0  0  0  0  0  0  0  0  0  0  0  0
   44.7663    6.6728   30.4436 N   0  0  0  0  0  0  0  0  0  0  0  0
   44.4489    6.8138   29.5224 H   0  0  0  0  0  0  0  0  0  0  0  0
   45.5149    8.9222   30.3336 N   0  0  0  0  0  0  0  0  0  0  0  0
   45.8745    7.9918   30.2638 C   0  0  0  0  0  0  0  0  0  0  0  0
   45.9156    9.6679   29.7647 H   0  0  0  0  0  0  0  0  0  0  0  0
   44.7472    9.1256   30.9739 H   0  0  0  0  0  0  0  0  0  0  0  0
   46.6270    7.7924   29.6361 C   0  0  0  0  0  0  0  0  0  0  0  0
   47.4487    7.3312   29.9711 O   0  0  0  0  0  0  0  0  0  0  0  0
   46.5578    8.0542   28.6735 C   0  0  0  0  0  0  0  0  0  0  0  0
   47.5157    7.0773   30.9049 H   0  0  0  0  0  0  0  0  0  0  0  0
   44.8709    5.0827   31.1224 C   0  0  0  0  0  0  0  0  0  0  0  0
   44.9466    4.4375   30.3622 C   0  0  0  0  0  0  0  0  0  0  0  0
   45.3406    3.5308   30.5132 C   0  0  0  0  0  0  0  0  0  0  0  0
   46.2356    3.4410   30.9501 O   0  0  0  0  0  0  0  0  0  0  0  0
   44.8396    2.7140   30.2273 N   0  0  0  0  0  0  0  0  0  0  0  0
   43.9585    2.8024   29.7971 H   0  0  0  0  0  0  0  0  0  0  0  0
   45.2275    1.8214   30.3759 H   0  0  0  0  0  0  0  0  0  0  0  0
   41.8668    5.3754   32.9256 C   0  0  0  0  0  0  0  0  0  0  0  0
   41.9247    4.7269   33.6846 C   0  0  0  0  0  0  0  0  0  0  0  0
   41.3803    3.8882   33.6682 C   0  0  0  0  0  0  0  0  0  0  0  0
   41.1418    3.4639   32.7947 O   0  0  0  0  0  0  0  0  0  0  0  0
   41.0745    3.4737   34.5254 N   0  0  0  0  0  0  0  0  0  0  0  0
   41.3093    3.8915   35.3854 H   0  0  0  0  0  0  0  0  0  0  0  0
   40.5386    2.6480   34.5093 H   0  0  0  0  0  0  0  0  0  0  0  0
   42.2326   11.0395   32.0837 C   0  0  0  0  0  0  0  0  0  0  0  0
   42.8949   11.7383   32.3537 O   0  0  0  0  0  0  0  0  0  0  0  0
   43.6748   11.9065   31.8020 H   0  0  0  0  0  0  0  0  0  0  0  0
   39.5239   13.2521   31.5803 C   0  0  0  0  0  0  0  0  0  0  0  0
   39.7667   13.5129   30.6459 C   0  0  0  0  0  0  0  0  0  0  0  0
   40.6384   13.9055   30.3530 C   0  0  0  0  0  0  0  0  0  0  0  0
   40.5909   14.0622   29.3664 N   0  0  0  0  0  0  0  0  0  0  0  0
   39.6897   13.7663   29.0497 C   0  0  0  0  0  0  0  0  0  0  0  0
   39.1803   13.4269   29.8405 N   0  0  0  0  0  0  0  0  0  0  0  0
   38.2626   13.0706   29.8282 H   0  0  0  0  0  0  0  0  0  0  0  0
 95 96  1  0  0  0
 95 97  1  0  0  0
 95 98  1  0  0  0
 96 91  1  0  0  0
 96 99  1  0  0  0
 91 92  2  0  0  0
 91 93  1  0  0  0
 93 90  1  0  0  0
 93 94  1  0  0  0
 90103  1  0  0  0
 90 86  1  0  0  0
103104  1  0  0  0
104105  1  0  0  0
105106  2  0  0  0
105107  1  0  0  0
107108  1  0  0  0
107109  1  0  0  0
 86 87  2  0  0  0
 86 88  1  0  0  0
 88 85  1  0  0  0
 88 89  1  0  0  0
 85110  1  0  0  0
 85 81  1  0  0  0
110111  1  0  0  0
111112  1  0  0  0
112113  2  0  0  0
112114  1  0  0  0
114115  1  0  0  0
114116  1  0  0  0
 81 82  2  0  0  0
 81 83  1  0  0  0
 83 79  1  0  0  0
 83 84  1  0  0  0
 79 80  1  0  0  0
 79 75  1  0  0  0
 75 76  2  0  0  0
 75 77  1  0  0  0
 77 74  1  0  0  0
 77 78  1  0  0  0
 74117  1  0  0  0
 74 70  1  0  0  0
117118  1  0  0  0
118119  1  0  0  0
 70 71  2  0  0  0
 70 72  1  0  0  0
 72 69  1  0  0  0
 72 73  1  0  0  0
 69120  1  0  0  0
 69 65  1  0  0  0
120121  1  0  0  0
121125  1  0  0  0
121122  2  0  0  0
122123  1  0  0  0
123124  2  0  0  0
124125  1  0  0  0
125126  1  0  0  0
 65 66  2  0  0  0
 65 67  1  0  0  0
 67  1  1  0  0  0
 67 68  1  0  0  0
  1  2  1  0  0  0
  1 10  1  0  0  0
  2  8  2  0  0  0
  2  3  1  0  0  0
  3  4  2  0  0  0
  4  5  1  0  0  0
  5  6  1  0  0  0
  5  7  2  0  0  0
  6  9  1  0  0  0
  7  8  1  0  0  0
 10 11  2  0  0  0
 10 12  1  0  0  0
 12 14  1  0  0  0
 12 13  1  0  0  0
 14 58  1  0  0  0
 14 15  1  0  0  0
 58 59  1  0  0  0
 59 60  1  0  0  0
 60 61  1  0  0  0
 61 62  1  0  0  0
 62 63  1  0  0  0
 62 64  1  0  0  0
 15 16  2  0  0  0
 15 17  1  0  0  0
 17 19  1  0  0  0
 17 18  1  0  0  0
 19 51  1  0  0  0
 19 20  1  0  0  0
 51 52  1  0  0  0
 52 53  1  0  0  0
 53 54  2  0  0  0
 53 55  1  0  0  0
 55 56  1  0  0  0
 55 57  1  0  0  0
 20 21  2  0  0  0
 20 22  1  0  0  0
 22 24  1  0  0  0
 22 23  1  0  0  0
 24 44  1  0  0  0
 24 25  1  0  0  0
 44 45  1  0  0  0
 45 49  1  0  0  0
 45 46  2  0  0  0
 46 47  1  0  0  0
 47 48  2  0  0  0
 48 49  1  0  0  0
 49 50  1  0  0  0
 25 26  2  0  0  0
 25 27  1  0  0  0
 27 29  1  0  0  0
 27 28  1  0  0  0
 29 41  1  0  0  0
 29 30  1  0  0  0
 41 42  1  0  0  0
 42 43  1  0  0  0
 30 31  2  0  0  0
 30 32  1  0  0  0
 32 36  1  0  0  0
 32 33  1  0  0  0
 33 34  1  0  0  0
 34 35  1  0  0  0
 35 36  1  0  0  0
 36 37  1  0  0  0
 37 38  1  0  0  0
 37 39  2  0  0  0
 38 40  1  0  0  0
 99100  1  0  0  0
 99101  1  0  0  0
100102  1  0  0  0
M  END
> <minimizedAffinity>
-7.12550

$$$$



126129  0  0  0  0  0  0  0  0999 V2000
   36.7344    9.7553   31.3971 C   0  0  0  0  0  0  0  0  0  0  0  0
   37.6472    9.4893   31.0874 C   0  0  0  0  0  0  0  0  0  0  0  0
   38.0718    8.6555   31.4403 C   0  0  0  0  0  0  0  0  0  0  0  0
   38.9848    8.3896   31.1306 C   0  0  0  0  0  0  0  0  0  0  0  0
   39.4730    8.9574   30.4679 C   0  0  0  0  0  0  0  0  0  0  0  0
   40.3859    8.6914   30.1581 O   0  0  0  0  0  0  0  0  0  0  0  0
   39.0484    9.7912   30.1149 C   0  0  0  0  0  0  0  0  0  0  0  0
   38.1356   10.0571   30.4247 C   0  0  0  0  0  0  0  0  0  0  0  0
   40.7837    7.9102   30.4888 H   0  0  0  0  0  0  0  0  0  0  0  0
   36.0546   10.0721   30.7357 C   0  0  0  0  0  0  0  0  0  0  0  0
   35.3654    9.4383   30.3846 O   0  0  0  0  0  0  0  0  0  0  0  0
   36.0640   11.0227   30.4255 N   0  0  0  0  0  0  0  0  0  0  0  0
   36.7426   11.6466   30.7712 H   0  0  0  0  0  0  0  0  0  0  0  0
   35.3842   11.3396   29.7640 C   0  0  0  0  0  0  0  0  0  0  0  0
   35.6423   11.4743   28.8074 C   0  0  0  0  0  0  0  0  0  0  0  0
   36.2853   12.1991   28.5603 O   0  0  0  0  0  0  0  0  0  0  0  0
   35.2573   10.8841   28.0978 N   0  0  0  0  0  0  0  0  0  0  0  0
   34.6243   10.1704   28.3411 H   0  0  0  0  0  0  0  0  0  0  0  0
   35.5154   11.0187   27.1411 C   0  0  0  0  0  0  0  0  0  0  0  0
   36.0513   10.3216   26.6649 C   0  0  0  0  0  0  0  0  0  0  0  0
   35.7972   10.0413   25.7393 O   0  0  0  0  0  0  0  0  0  0  0  0
   36.8414    9.9047   27.1144 N   0  0  0  0  0  0  0  0  0  0  0  0
   37.0916   10.1807   28.0257 H   0  0  0  0  0  0  0  0  0  0  0  0
   37.3774    9.2076   26.6382 C   0  0  0  0  0  0  0  0  0  0  0  0
   38.2471    9.4519   26.2095 C   0  0  0  0  0  0  0  0  0  0  0  0
   38.6972    8.8088   25.5899 O   0  0  0  0  0  0  0  0  0  0  0  0
   38.6668   10.3393   26.4003 N   0  0  0  0  0  0  0  0  0  0  0  0
   38.2236   10.9724   27.0102 H   0  0  0  0  0  0  0  0  0  0  0  0
   39.5365   10.5837   25.9715 C   0  0  0  0  0  0  0  0  0  0  0  0
   40.3834   10.5464   26.5020 C   0  0  0  0  0  0  0  0  0  0  0  0
   41.0520    9.8239   26.3264 O   0  0  0  0  0  0  0  0  0  0  0  0
   40.5616   11.2318   27.2082 N   0  0  0  0  0  0  0  0  0  0  0  0
   39.9584   11.9894   27.4574 C   0  0  0  0  0  0  0  0  0  0  0  0
   40.3984   12.5056   28.1923 C   0  0  0  0  0  0  0  0  0  0  0  0
   41.2733   12.0669   28.3972 C   0  0  0  0  0  0  0  0  0  0  0  0
   41.3742   11.2796   27.7889 C   0  0  0  0  0  0  0  0  0  0  0  0
   42.1512   10.6507   27.7656 C   0  0  0  0  0  0  0  0  0  0  0  0
   42.1086    9.7846   28.2636 O   0  0  0  0  0  0  0  0  0  0  0  0
   42.9710   10.8878   27.2442 O   0  0  0  0  0  0  0  0  0  0  0  0
   41.3405    9.5624   28.7521 H   0  0  0  0  0  0  0  0  0  0  0  0
   39.5594   10.8653   25.0122 C   0  0  0  0  0  0  0  0  0  0  0  0
   39.1044   11.7091   24.7278 S   0  0  0  0  0  0  0  0  0  0  0  0
   38.4545   12.4738   25.6456 H   0  0  0  0  0  0  0  0  0  0  0  0
   37.0435    8.2662   26.5908 C   0  0  0  0  0  0  0  0  0  0  0  0
   37.1492    7.6580   27.3775 C   0  0  0  0  0  0  0  0  0  0  0  0
   36.4568    7.4737   28.0752 C   0  0  0  0  0  0  0  0  0  0  0  0
   36.8454    6.8291   28.7335 N   0  0  0  0  0  0  0  0  0  0  0  0
   37.7780    6.6150   28.4429 C   0  0  0  0  0  0  0  0  0  0  0  0
   37.9657    7.1273   27.6047 N   0  0  0  0  0  0  0  0  0  0  0  0
   38.8067    7.1118   27.0932 H   0  0  0  0  0  0  0  0  0  0  0  0
   35.2375   11.8506   26.6606 C   0  0  0  0  0  0  0  0  0  0  0  0
   34.3361   11.9023   26.2308 C   0  0  0  0  0  0  0  0  0  0  0  0
   33.9663   12.7878   25.9495 C   0  0  0  0  0  0  0  0  0  0  0  0
   34.5394   13.4298   25.4400 O   0  0  0  0  0  0  0  0  0  0  0  0
   33.0236   13.0312   26.1775 N   0  0  0  0  0  0  0  0  0  0  0  0
   32.4595   12.3991   26.6789 H   0  0  0  0  0  0  0  0  0  0  0  0
   32.6596   13.9030   25.9004 H   0  0  0  0  0  0  0  0  0  0  0  0
   34.4463   11.5218   30.0594 C   0  0  0  0  0  0  0  0  0  0  0  0
   34.2210   12.3903   30.5009 C   0  0  0  0  0  0  0  0  0  0  0  0
   33.2726   12.7062   30.5279 C   0  0  0  0  0  0  0  0  0  0  0  0
   33.0166   13.4698   31.1206 C   0  0  0  0  0  0  0  0  0  0  0  0
   32.0844   13.8311   31.0961 N   0  0  0  0  0  0  0  0  0  0  0  0
   31.3948   13.4208   30.4665 H   0  0  0  0  0  0  0  0  0  0  0  0
   31.8233   14.6100   31.7007 H   0  0  0  0  0  0  0  0  0  0  0  0
   36.7227   10.4669   32.9762 C   0  0  0  0  0  0  0  0  0  0  0  0
   37.1771   11.2803   32.6130 O   0  0  0  0  0  0  0  0  0  0  0  0
   36.5014    9.7044   32.3683 N   0  0  0  0  0  0  0  0  0  0  0  0
   36.0540    8.9036   32.7258 H   0  0  0  0  0  0  0  0  0  0  0  0
   36.4896   10.4160   33.9473 C   0  0  0  0  0  0  0  0  0  0  0  0
   37.3246    9.4958   35.1540 C   0  0  0  0  0  0  0  0  0  0  0  0
   36.7100    8.7241   34.9908 O   0  0  0  0  0  0  0  0  0  0  0  0
   37.2144   10.3418   34.6322 N   0  0  0  0  0  0  0  0  0  0  0  0
   37.8196   11.1016   34.7928 H   0  0  0  0  0  0  0  0  0  0  0  0
   38.0494    9.4216   35.8389 C   0  0  0  0  0  0  0  0  0  0  0  0
   39.3567    8.3090   36.0697 C   0  0  0  0  0  0  0  0  0  0  0  0
   38.8593    7.8812   36.8243 O   0  0  0  0  0  0  0  0  0  0  0  0
   38.9517    9.0792   35.5769 N   0  0  0  0  0  0  0  0  0  0  0  0
   39.4413    9.5005   34.8339 H   0  0  0  0  0  0  0  0  0  0  0  0
   40.2590    7.9667   35.8077 C   0  0  0  0  0  0  0  0  0  0  0  0
   40.8722    7.5908   36.5024 C   0  0  0  0  0  0  0  0  0  0  0  0
   41.1610    7.2979   34.4890 C   0  0  0  0  0  0  0  0  0  0  0  0
   41.4847    6.5620   35.0837 O   0  0  0  0  0  0  0  0  0  0  0  0
   40.5481    8.0002   34.8510 N   0  0  0  0  0  0  0  0  0  0  0  0
   40.2294    8.7247   34.2655 H   0  0  0  0  0  0  0  0  0  0  0  0
   41.4501    7.3314   33.5322 C   0  0  0  0  0  0  0  0  0  0  0  0
   42.5121    8.5826   32.9785 C   0  0  0  0  0  0  0  0  0  0  0  0
   43.2973    8.0693   33.3245 O   0  0  0  0  0  0  0  0  0  0  0  0
   41.5885    8.2137   33.0823 N   0  0  0  0  0  0  0  0  0  0  0  0
   40.8153    8.7190   32.7417 H   0  0  0  0  0  0  0  0  0  0  0  0
   42.6504    9.4649   32.5286 C   0  0  0  0  0  0  0  0  0  0  0  0
   41.7033   10.7584   33.1842 C   0  0  0  0  0  0  0  0  0  0  0  0
   42.2770   10.7634   34.0032 O   0  0  0  0  0  0  0  0  0  0  0  0
   41.8900   10.1092   32.4469 N   0  0  0  0  0  0  0  0  0  0  0  0
   41.3251   10.1042   31.6405 H   0  0  0  0  0  0  0  0  0  0  0  0
   40.0480   11.1710   33.4841 N   0  0  0  0  0  0  0  0  0  0  0  0
   40.9428   11.4027   33.1024 C   0  0  0  0  0  0  0  0  0  0  0  0
   39.2724   11.8281   33.4008 H   0  0  0  0  0  0  0  0  0  0  0  0
   39.9110   10.2775   33.9568 H   0  0  0  0  0  0  0  0  0  0  0  0
   41.0771   12.2786   32.6391 C   0  0  0  0  0  0  0  0  0  0  0  0
   41.8990   12.8189   32.8195 O   0  0  0  0  0  0  0  0  0  0  0  0
   40.3896   12.6142   31.9952 C   0  0  0  0  0  0  0  0  0  0  0  0
   42.5660   12.4932   33.4441 H   0  0  0  0  0  0  0  0  0  0  0  0
   43.5491    9.7030   32.1604 C   0  0  0  0  0  0  0  0  0  0  0  0
   43.6692    9.8259   31.1753 C   0  0  0  0  0  0  0  0  0  0  0  0
   44.5392   10.1637   30.8159 C   0  0  0  0  0  0  0  0  0  0  0  0
   45.4011    9.8349   31.2019 O   0  0  0  0  0  0  0  0  0  0  0  0
   44.5472   10.8303   30.0705 N   0  0  0  0  0  0  0  0  0  0  0  0
   43.6987   11.1539   29.6905 H   0  0  0  0  0  0  0  0  0  0  0  0
   45.4037   11.1628   29.7168 H   0  0  0  0  0  0  0  0  0  0  0  0
   41.6009    6.4826   33.0255 C   0  0  0  0  0  0  0  0  0  0  0  0
   40.8784    6.1145   32.4403 C   0  0  0  0  0  0  0  0  0  0  0  0
   41.1075    5.4809   31.7015 C   0  0  0  0  0  0  0  0  0  0  0  0
   41.4550    5.8315   30.8318 O   0  0  0  0  0  0  0  0  0  0  0  0
   40.9892    4.4965   31.8323 N   0  0  0  0  0  0  0  0  0  0  0  0
   40.6471    4.1513   32.6884 H   0  0  0  0  0  0  0  0  0  0  0  0
   41.2149    3.8726   31.1048 H   0  0  0  0  0  0  0  0  0  0  0  0
   37.8719    9.6897   36.7858 C   0  0  0  0  0  0  0  0  0  0  0  0
   37.8672   10.6571   37.0390 O   0  0  0  0  0  0  0  0  0  0  0  0
   37.6950   10.9171   37.9576 H   0  0  0  0  0  0  0  0  0  0  0  0
   35.5317   10.4394   34.2335 C   0  0  0  0  0  0  0  0  0  0  0  0
   35.1216   11.2991   34.5377 C   0  0  0  0  0  0  0  0  0  0  0  0
   34.3714   11.7840   34.0881 C   0  0  0  0  0  0  0  0  0  0  0  0
   34.1757   12.6096   34.6175 N   0  0  0  0  0  0  0  0  0  0  0  0
   34.8051   12.6349   35.3943 C   0  0  0  0  0  0  0  0  0  0  0  0
   35.3895   11.8250   35.3449 N   0  0  0  0  0  0  0  0  0  0  0  0
   36.1035   11.5871   35.9797 H   0  0  0  0  0  0  0  0  0  0  0  0
 95 96  1  0  0  0
 95 97  1  0  0  0
 95 98  1  0  0  0
 96 91  1  0  0  0
 96 99  1  0  0  0
 91 92  2  0  0  0
 91 93  1  0  0  0
 93 90  1  0  0  0
 93 94  1  0  0  0
 90103  1  0  0  0
 90 86  1  0  0  0
103104  1  0  0  0
104105  1  0  0  0
105106  2  0  0  0
105107  1  0  0  0
107108  1  0  0  0
107109  1  0  0  0
 86 87  2  0  0  0
 86 88  1  0  0  0
 88 85  1  0  0  0
 88 89  1  0  0  0
 85110  1  0  0  0
 85 81  1  0  0  0
110111  1  0  0  0
111112  1  0  0  0
112113  2  0  0  0
112114  1  0  0  0
114115  1  0  0  0
114116  1  0  0  0
 81 82  2  0  0  0
 81 83  1  0  0  0
 83 79  1  0  0  0
 83 84  1  0  0  0
 79 80  1  0  0  0
 79 75  1  0  0  0
 75 76  2  0  0  0
 75 77  1  0  0  0
 77 74  1  0  0  0
 77 78  1  0  0  0
 74117  1  0  0  0
 74 70  1  0  0  0
117118  1  0  0  0
118119  1  0  0  0
 70 71  2  0  0  0
 70 72  1  0  0  0
 72 69  1  0  0  0
 72 73  1  0  0  0
 69120  1  0  0  0
 69 65  1  0  0  0
120121  1  0  0  0
121125  1  0  0  0
121122  2  0  0  0
122123  1  0  0  0
123124  2  0  0  0
124125  1  0  0  0
125126  1  0  0  0
 65 66  2  0  0  0
 65 67  1  0  0  0
 67  1  1  0  0  0
 67 68  1  0  0  0
  1  2  1  0  0  0
  1 10  1  0  0  0
  2  8  2  0  0  0
  2  3  1  0  0  0
  3  4  2  0  0  0
  4  5  1  0  0  0
  5  6  1  0  0  0
  5  7  2  0  0  0
  6  9  1  0  0  0
  7  8  1  0  0  0
 10 11  2  0  0  0
 10 12  1  0  0  0
 12 14  1  0  0  0
 12 13  1  0  0  0
 14 58  1  0  0  0
 14 15  1  0  0  0
 58 59  1  0  0  0
 59 60  1  0  0  0
 60 61  1  0  0  0
 61 62  1  0  0  0
 62 63  1  0  0  0
 62 64  1  0  0  0
 15 16  2  0  0  0
 15 17  1  0  0  0
 17 19  1  0  0  0
 17 18  1  0  0  0
 19 51  1  0  0  0
 19 20  1  0  0  0
 51 52  1  0  0  0
 52 53  1  0  0  0
 53 54  2  0  0  0
 53 55  1  0  0  0
 55 56  1  0  0  0
 55 57  1  0  0  0
 20 21  2  0  0  0
 20 22  1  0  0  0
 22 24  1  0  0  0
 22 23  1  0  0  0
 24 44  1  0  0  0
 24 25  1  0  0  0
 44 45  1  0  0  0
 45 49  1  0  0  0
 45 46  2  0  0  0
 46 47  1  0  0  0
 47 48  2  0  0  0
 48 49  1  0  0  0
 49 50  1  0  0  0
 25 26  2  0  0  0
 25 27  1  0  0  0
 27 29  1  0  0  0
 27 28  1  0  0  0
 29 41  1  0  0  0
 29 30  1  0  0  0
 41 42  1  0  0  0
 42 43  1  0  0  0
 30 31  2  0  0  0
 30 32  1  0  0  0
 32 36  1  0  0  0
 32 33  1  0  0  0
 33 34  1  0  0  0
 34 35  1  0  0  0
 35 36  1  0  0  0
 36 37  1  0  0  0
 37 38  1  0  0  0
 37 39  2  0  0  0
 38 40  1  0  0  0
 99100  1  0  0  0
 99101  1  0  0  0
100102  1  0  0  0
M  END
> <minimizedAffinity>
-7.07850

$$$$



126129  0  0  0  0  0  0  0  0999 V2000
   39.0916   15.3343   29.3963 C   0  0  0  0  0  0  0  0  0  0  0  0
   39.9385   15.7327   29.0442 C   0  0  0  0  0  0  0  0  0  0  0  0
   40.1569   15.6633   28.0708 C   0  0  0  0  0  0  0  0  0  0  0  0
   41.0039   16.0618   27.7188 C   0  0  0  0  0  0  0  0  0  0  0  0
   41.6324   16.5296   28.3401 C   0  0  0  0  0  0  0  0  0  0  0  0
   42.4794   16.9280   27.9881 O   0  0  0  0  0  0  0  0  0  0  0  0
   41.4140   16.5991   29.3135 C   0  0  0  0  0  0  0  0  0  0  0  0
   40.5671   16.2006   29.6656 C   0  0  0  0  0  0  0  0  0  0  0  0
   42.6840   16.8630   27.0760 H   0  0  0  0  0  0  0  0  0  0  0  0
   39.1230   14.6813   30.1529 C   0  0  0  0  0  0  0  0  0  0  0  0
   39.0337   15.0033   31.0954 O   0  0  0  0  0  0  0  0  0  0  0  0
   39.2438   13.7062   29.9671 N   0  0  0  0  0  0  0  0  0  0  0  0
   39.3317   13.3891   29.0392 H   0  0  0  0  0  0  0  0  0  0  0  0
   39.2752   13.0530   30.7237 C   0  0  0  0  0  0  0  0  0  0  0  0
   38.5492   12.3733   30.8281 C   0  0  0  0  0  0  0  0  0  0  0  0
   38.5562   11.5444   30.2688 O   0  0  0  0  0  0  0  0  0  0  0  0
   37.8161   12.5226   31.4916 N   0  0  0  0  0  0  0  0  0  0  0  0
   37.8092   13.3387   32.0422 H   0  0  0  0  0  0  0  0  0  0  0  0
   37.0901   11.8429   31.5960 C   0  0  0  0  0  0  0  0  0  0  0  0
   37.0347   11.2946   32.4303 C   0  0  0  0  0  0  0  0  0  0  0  0
   37.0700   10.2967   32.3761 O   0  0  0  0  0  0  0  0  0  0  0  0
   36.9440   11.7441   33.3191 N   0  0  0  0  0  0  0  0  0  0  0  0
   36.9093   12.7265   33.3724 H   0  0  0  0  0  0  0  0  0  0  0  0
   36.8886   11.1957   34.1534 C   0  0  0  0  0  0  0  0  0  0  0  0
   37.7027   11.0614   34.7184 C   0  0  0  0  0  0  0  0  0  0  0  0
   38.1982   11.8523   35.0775 O   0  0  0  0  0  0  0  0  0  0  0  0
   38.0214   10.1361   34.9242 N   0  0  0  0  0  0  0  0  0  0  0  0
   37.5336    9.3575   34.5707 H   0  0  0  0  0  0  0  0  0  0  0  0
   38.8355   10.0018   35.4891 C   0  0  0  0  0  0  0  0  0  0  0  0
   39.5279    9.3334   35.2175 C   0  0  0  0  0  0  0  0  0  0  0  0
   39.3435    8.3553   35.3137 O   0  0  0  0  0  0  0  0  0  0  0  0
   40.4047    9.6432   34.8495 N   0  0  0  0  0  0  0  0  0  0  0  0
   40.6827   10.5943   34.7152 C   0  0  0  0  0  0  0  0  0  0  0  0
   41.6072   10.5951   34.3340 C   0  0  0  0  0  0  0  0  0  0  0  0
   41.9005    9.6444   34.2327 C   0  0  0  0  0  0  0  0  0  0  0  0
   41.1573    9.0561   34.5513 C   0  0  0  0  0  0  0  0  0  0  0  0
   41.1653    8.0564   34.5687 C   0  0  0  0  0  0  0  0  0  0  0  0
   40.8687    7.5399   33.7653 O   0  0  0  0  0  0  0  0  0  0  0  0
   41.4700    7.5729   35.3894 O   0  0  0  0  0  0  0  0  0  0  0  0
   40.5832    7.9929   32.9964 H   0  0  0  0  0  0  0  0  0  0  0  0
   38.9572   10.5359   36.3258 C   0  0  0  0  0  0  0  0  0  0  0  0
   38.7359   10.1320   37.2135 S   0  0  0  0  0  0  0  0  0  0  0  0
   38.2694    8.8564   37.2829 H   0  0  0  0  0  0  0  0  0  0  0  0
   36.0192   10.7817   34.4229 C   0  0  0  0  0  0  0  0  0  0  0  0
   35.3032   11.3456   34.8345 C   0  0  0  0  0  0  0  0  0  0  0  0
   34.4980   11.7083   34.3651 C   0  0  0  0  0  0  0  0  0  0  0  0
   33.9639   12.2326   35.0282 N   0  0  0  0  0  0  0  0  0  0  0  0
   34.4388   12.1940   35.9075 C   0  0  0  0  0  0  0  0  0  0  0  0
   35.2666   11.6457   35.7876 N   0  0  0  0  0  0  0  0  0  0  0  0
   35.9290   11.4380   36.4857 H   0  0  0  0  0  0  0  0  0  0  0  0
   36.4194   11.7116   30.8659 C   0  0  0  0  0  0  0  0  0  0  0  0
   35.5376   12.1814   30.9066 C   0  0  0  0  0  0  0  0  0  0  0  0
   34.7793   11.8720   30.3327 C   0  0  0  0  0  0  0  0  0  0  0  0
   33.8461   12.1695   30.5342 O   0  0  0  0  0  0  0  0  0  0  0  0
   34.9543   11.2651   29.5574 N   0  0  0  0  0  0  0  0  0  0  0  0
   35.8730   10.9722   29.3592 H   0  0  0  0  0  0  0  0  0  0  0  0
   34.2077   10.9605   28.9925 H   0  0  0  0  0  0  0  0  0  0  0  0
   40.0327   13.0796   31.3760 C   0  0  0  0  0  0  0  0  0  0  0  0
   40.8767   12.5791   31.1829 C   0  0  0  0  0  0  0  0  0  0  0  0
   41.7489   12.9129   31.5406 C   0  0  0  0  0  0  0  0  0  0  0  0
   42.6052   12.4891   31.2456 C   0  0  0  0  0  0  0  0  0  0  0  0
   43.4393   12.6220   31.7811 N   0  0  0  0  0  0  0  0  0  0  0  0
   43.4164   13.1898   32.6282 H   0  0  0  0  0  0  0  0  0  0  0  0
   44.3128   12.1898   31.4803 H   0  0  0  0  0  0  0  0  0  0  0  0
   37.6889   16.3502   29.3732 C   0  0  0  0  0  0  0  0  0  0  0  0
   38.0430   16.8569   30.1594 O   0  0  0  0  0  0  0  0  0  0  0  0
   38.2133   15.5889   28.9917 N   0  0  0  0  0  0  0  0  0  0  0  0
   37.8648   15.0901   28.2178 H   0  0  0  0  0  0  0  0  0  0  0  0
   36.8106   16.6048   28.9686 C   0  0  0  0  0  0  0  0  0  0  0  0
   36.8324   17.2632   27.3667 C   0  0  0  0  0  0  0  0  0  0  0  0
   37.1501   18.1387   27.7309 O   0  0  0  0  0  0  0  0  0  0  0  0
   36.6627   16.4962   27.9856 N   0  0  0  0  0  0  0  0  0  0  0  0
   36.3499   15.6343   27.6271 H   0  0  0  0  0  0  0  0  0  0  0  0
   36.6845   17.1547   26.3837 C   0  0  0  0  0  0  0  0  0  0  0  0
   35.0872   16.9317   25.7522 C   0  0  0  0  0  0  0  0  0  0  0  0
   34.9357   17.9196   25.7868 O   0  0  0  0  0  0  0  0  0  0  0  0
   35.9616   16.5493   26.0507 N   0  0  0  0  0  0  0  0  0  0  0  0
   36.1108   15.5768   26.0167 H   0  0  0  0  0  0  0  0  0  0  0  0
   34.3642   16.3263   25.4192 C   0  0  0  0  0  0  0  0  0  0  0  0
   33.4109   16.6275   25.4399 C   0  0  0  0  0  0  0  0  0  0  0  0
   34.0345   15.0059   24.3480 C   0  0  0  0  0  0  0  0  0  0  0  0
   33.2439   15.4985   23.9842 O   0  0  0  0  0  0  0  0  0  0  0  0
   34.5947   15.4198   25.0655 N   0  0  0  0  0  0  0  0  0  0  0  0
   35.3730   14.9349   25.4237 H   0  0  0  0  0  0  0  0  0  0  0  0
   34.2649   14.0993   23.9942 C   0  0  0  0  0  0  0  0  0  0  0  0
   34.3134   12.8087   25.1482 C   0  0  0  0  0  0  0  0  0  0  0  0
   33.3139   12.7948   25.1747 O   0  0  0  0  0  0  0  0  0  0  0  0
   34.7889   13.4610   24.5580 N   0  0  0  0  0  0  0  0  0  0  0  0
   35.7730   13.4747   24.5319 H   0  0  0  0  0  0  0  0  0  0  0  0
   34.8374   12.1703   25.7121 C   0  0  0  0  0  0  0  0  0  0  0  0
   36.5189   12.2804   26.1126 C   0  0  0  0  0  0  0  0  0  0  0  0
   36.7445   11.7103   25.3226 O   0  0  0  0  0  0  0  0  0  0  0  0
   35.5654   12.5104   26.3073 N   0  0  0  0  0  0  0  0  0  0  0  0
   35.3434   13.0717   27.0851 H   0  0  0  0  0  0  0  0  0  0  0  0
   37.2927   12.3234   27.6616 N   0  0  0  0  0  0  0  0  0  0  0  0
   37.2470   12.6205   26.7079 C   0  0  0  0  0  0  0  0  0  0  0  0
   38.0352   12.6702   28.2688 H   0  0  0  0  0  0  0  0  0  0  0  0
   36.5968   11.6733   28.0272 H   0  0  0  0  0  0  0  0  0  0  0  0
   37.9292   13.2578   26.3495 C   0  0  0  0  0  0  0  0  0  0  0  0
   37.6461   14.1554   26.0116 O   0  0  0  0  0  0  0  0  0  0  0  0
   38.8944   12.9975   26.3290 C   0  0  0  0  0  0  0  0  0  0  0  0
   36.7097   14.4079   26.0315 H   0  0  0  0  0  0  0  0  0  0  0  0
   34.6335   11.1919   25.6806 C   0  0  0  0  0  0  0  0  0  0  0  0
   34.0058   10.7903   26.3475 C   0  0  0  0  0  0  0  0  0  0  0  0
   33.9936    9.8005   26.4899 C   0  0  0  0  0  0  0  0  0  0  0  0
   34.7396    9.3577   26.9872 O   0  0  0  0  0  0  0  0  0  0  0  0
   33.2354    9.2536   26.1348 N   0  0  0  0  0  0  0  0  0  0  0  0
   32.5010    9.6897   25.6452 H   0  0  0  0  0  0  0  0  0  0  0  0
   33.2234    8.2793   26.2750 H   0  0  0  0  0  0  0  0  0  0  0  0
   33.9713   13.8312   23.0767 C   0  0  0  0  0  0  0  0  0  0  0  0
   34.6425   13.7544   22.3394 C   0  0  0  0  0  0  0  0  0  0  0  0
   34.3963   13.2973   21.4848 C   0  0  0  0  0  0  0  0  0  0  0  0
   34.5231   12.3098   21.3914 O   0  0  0  0  0  0  0  0  0  0  0  0
   34.0233   13.8277   20.7234 N   0  0  0  0  0  0  0  0  0  0  0  0
   33.8984   14.7999   20.8154 H   0  0  0  0  0  0  0  0  0  0  0  0
   33.7809   13.3777   19.8820 H   0  0  0  0  0  0  0  0  0  0  0  0
   37.2595   17.6515   25.7338 C   0  0  0  0  0  0  0  0  0  0  0  0
   37.9977   17.1767   25.2547 O   0  0  0  0  0  0  0  0  0  0  0  0
   38.5555   17.6587   24.6241 H   0  0  0  0  0  0  0  0  0  0  0  0
   36.0801   16.9680   29.5471 C   0  0  0  0  0  0  0  0  0  0  0  0
   35.1638   16.5699   29.5043 C   0  0  0  0  0  0  0  0  0  0  0  0
   34.9342   15.6069   29.6447 C   0  0  0  0  0  0  0  0  0  0  0  0
   33.9446   15.5067   29.5408 N   0  0  0  0  0  0  0  0  0  0  0  0
   33.5627   16.4081   29.3362 C   0  0  0  0  0  0  0  0  0  0  0  0
   34.3162   17.0651   29.3136 N   0  0  0  0  0  0  0  0  0  0  0  0
   34.2374   18.0300   29.1350 H   0  0  0  0  0  0  0  0  0  0  0  0
 95 96  1  0  0  0
 95 97  1  0  0  0
 95 98  1  0  0  0
 96 91  1  0  0  0
 96 99  1  0  0  0
 91 92  2  0  0  0
 91 93  1  0  0  0
 93 90  1  0  0  0
 93 94  1  0  0  0
 90103  1  0  0  0
 90 86  1  0  0  0
103104  1  0  0  0
104105  1  0  0  0
105106  2  0  0  0
105107  1  0  0  0
107108  1  0  0  0
107109  1  0  0  0
 86 87  2  0  0  0
 86 88  1  0  0  0
 88 85  1  0  0  0
 88 89  1  0  0  0
 85110  1  0  0  0
 85 81  1  0  0  0
110111  1  0  0  0
111112  1  0  0  0
112113  2  0  0  0
112114  1  0  0  0
114115  1  0  0  0
114116  1  0  0  0
 81 82  2  0  0  0
 81 83  1  0  0  0
 83 79  1  0  0  0
 83 84  1  0  0  0
 79 80  1  0  0  0
 79 75  1  0  0  0
 75 76  2  0  0  0
 75 77  1  0  0  0
 77 74  1  0  0  0
 77 78  1  0  0  0
 74117  1  0  0  0
 74 70  1  0  0  0
117118  1  0  0  0
118119  1  0  0  0
 70 71  2  0  0  0
 70 72  1  0  0  0
 72 69  1  0  0  0
 72 73  1  0  0  0
 69120  1  0  0  0
 69 65  1  0  0  0
120121  1  0  0  0
121125  1  0  0  0
121122  2  0  0  0
122123  1  0  0  0
123124  2  0  0  0
124125  1  0  0  0
125126  1  0  0  0
 65 66  2  0  0  0
 65 67  1  0  0  0
 67  1  1  0  0  0
 67 68  1  0  0  0
  1  2  1  0  0  0
  1 10  1  0  0  0
  2  8  2  0  0  0
  2  3  1  0  0  0
  3  4  2  0  0  0
  4  5  1  0  0  0
  5  6  1  0  0  0
  5  7  2  0  0  0
  6  9  1  0  0  0
  7  8  1  0  0  0
 10 11  2  0  0  0
 10 12  1  0  0  0
 12 14  1  0  0  0
 12 13  1  0  0  0
 14 58  1  0  0  0
 14 15  1  0  0  0
 58 59  1  0  0  0
 59 60  1  0  0  0
 60 61  1  0  0  0
 61 62  1  0  0  0
 62 63  1  0  0  0
 62 64  1  0  0  0
 15 16  2  0  0  0
 15 17  1  0  0  0
 17 19  1  0  0  0
 17 18  1  0  0  0
 19 51  1  0  0  0
 19 20  1  0  0  0
 51 52  1  0  0  0
 52 53  1  0  0  0
 53 54  2  0  0  0
 53 55  1  0  0  0
 55 56  1  0  0  0
 55 57  1  0  0  0
 20 21  2  0  0  0
 20 22  1  0  0  0
 22 24  1  0  0  0
 22 23  1  0  0  0
 24 44  1  0  0  0
 24 25  1  0  0  0
 44 45  1  0  0  0
 45 49  1  0  0  0
 45 46  2  0  0  0
 46 47  1  0  0  0
 47 48  2  0  0  0
 48 49  1  0  0  0
 49 50  1  0  0  0
 25 26  2  0  0  0
 25 27  1  0  0  0
 27 29  1  0  0  0
 27 28  1  0  0  0
 29 41  1  0  0  0
 29 30  1  0  0  0
 41 42  1  0  0  0
 42 43  1  0  0  0
 30 31  2  0  0  0
 30 32  1  0  0  0
 32 36  1  0  0  0
 32 33  1  0  0  0
 33 34  1  0  0  0
 34 35  1  0  0  0
 35 36  1  0  0  0
 36 37  1  0  0  0
 37 38  1  0  0  0
 37 39  2  0  0  0
 38 40  1  0  0  0
 99100  1  0  0  0
 99101  1  0  0  0
100102  1  0  0  0
M  END
> <minimizedAffinity>
-6.94217

$$$$



126129  0  0  0  0  0  0  0  0999 V2000
   35.5455   12.5686   27.8569 C   0  0  0  0  0  0  0  0  0  0  0  0
   35.1362   11.7318   27.4934 C   0  0  0  0  0  0  0  0  0  0  0  0
   34.8145   11.0203   28.1182 C   0  0  0  0  0  0  0  0  0  0  0  0
   34.4052   10.1834   27.7546 C   0  0  0  0  0  0  0  0  0  0  0  0
   34.3175   10.0581   26.7664 C   0  0  0  0  0  0  0  0  0  0  0  0
   33.9082    9.2212   26.4030 O   0  0  0  0  0  0  0  0  0  0  0  0
   34.6392   10.7695   26.1417 C   0  0  0  0  0  0  0  0  0  0  0  0
   35.0485   11.6064   26.5051 C   0  0  0  0  0  0  0  0  0  0  0  0
   33.6068    8.5545   26.9884 H   0  0  0  0  0  0  0  0  0  0  0  0
   36.3673   12.5176   28.4244 C   0  0  0  0  0  0  0  0  0  0  0  0
   36.3258   12.0891   29.3270 O   0  0  0  0  0  0  0  0  0  0  0  0
   37.2305   12.8952   28.0894 N   0  0  0  0  0  0  0  0  0  0  0  0
   37.2713   13.3171   27.2008 H   0  0  0  0  0  0  0  0  0  0  0  0
   38.0523   12.8442   28.6569 C   0  0  0  0  0  0  0  0  0  0  0  0
   38.6789   12.0708   28.5612 C   0  0  0  0  0  0  0  0  0  0  0  0
   38.7988   11.6317   27.6708 O   0  0  0  0  0  0  0  0  0  0  0  0
   39.1856   11.7364   29.3558 N   0  0  0  0  0  0  0  0  0  0  0  0
   39.0675   12.1687   30.2324 H   0  0  0  0  0  0  0  0  0  0  0  0
   39.8122   10.9630   29.2601 C   0  0  0  0  0  0  0  0  0  0  0  0
   39.6386   10.1141   29.7594 C   0  0  0  0  0  0  0  0  0  0  0  0
   40.3864    9.4725   29.9299 O   0  0  0  0  0  0  0  0  0  0  0  0
   38.7172    9.9069   30.0882 N   0  0  0  0  0  0  0  0  0  0  0  0
   37.9809   10.5385   29.9203 H   0  0  0  0  0  0  0  0  0  0  0  0
   38.5436    9.0580   30.5875 C   0  0  0  0  0  0  0  0  0  0  0  0
   38.0659    8.3028   30.1388 C   0  0  0  0  0  0  0  0  0  0  0  0
   37.0666    8.2671   30.1484 O   0  0  0  0  0  0  0  0  0  0  0  0
   38.5875    7.5831   29.6805 N   0  0  0  0  0  0  0  0  0  0  0  0
   39.5713    7.6182   29.6710 H   0  0  0  0  0  0  0  0  0  0  0  0
   38.1098    6.8279   29.2317 C   0  0  0  0  0  0  0  0  0  0  0  0
   37.7785    6.9325   28.2940 C   0  0  0  0  0  0  0  0  0  0  0  0
   36.7975    6.8963   28.1034 O   0  0  0  0  0  0  0  0  0  0  0  0
   38.4282    7.0734   27.5470 N   0  0  0  0  0  0  0  0  0  0  0  0
   39.4230    7.1242   27.6350 C   0  0  0  0  0  0  0  0  0  0  0  0
   39.8067    7.2703   26.7231 C   0  0  0  0  0  0  0  0  0  0  0  0
   39.0490    7.3098   26.0717 C   0  0  0  0  0  0  0  0  0  0  0  0
   38.1971    7.1881   26.5808 C   0  0  0  0  0  0  0  0  0  0  0  0
   37.2758    7.1822   26.1922 C   0  0  0  0  0  0  0  0  0  0  0  0
   36.9042    6.3409   25.7994 O   0  0  0  0  0  0  0  0  0  0  0  0
   36.7260    8.0175   26.1962 O   0  0  0  0  0  0  0  0  0  0  0  0
   37.4193    5.5582   25.7957 H   0  0  0  0  0  0  0  0  0  0  0  0
   37.9634    5.9679   29.7207 C   0  0  0  0  0  0  0  0  0  0  0  0
   38.7422    5.4725   30.1053 S   0  0  0  0  0  0  0  0  0  0  0  0
   40.0007    5.9683   29.9634 H   0  0  0  0  0  0  0  0  0  0  0  0
   38.8477    8.9644   31.5355 C   0  0  0  0  0  0  0  0  0  0  0  0
   38.4679    9.5597   32.2435 C   0  0  0  0  0  0  0  0  0  0  0  0
   37.5175    9.5710   32.5544 C   0  0  0  0  0  0  0  0  0  0  0  0
   37.4340   10.2665   33.2680 N   0  0  0  0  0  0  0  0  0  0  0  0
   38.3328   10.6851   33.3983 C   0  0  0  0  0  0  0  0  0  0  0  0
   38.9718   10.2483   32.7650 N   0  0  0  0  0  0  0  0  0  0  0  0
   39.9289   10.4592   32.6716 H   0  0  0  0  0  0  0  0  0  0  0  0
   40.6123   11.0384   28.6650 C   0  0  0  0  0  0  0  0  0  0  0  0
   41.4322   11.5116   28.9872 C   0  0  0  0  0  0  0  0  0  0  0  0
   42.2342   11.5824   28.3941 C   0  0  0  0  0  0  0  0  0  0  0  0
   43.1128   11.8724   28.7738 O   0  0  0  0  0  0  0  0  0  0  0  0
   42.1577   11.3633   27.4215 N   0  0  0  0  0  0  0  0  0  0  0  0
   41.2928   11.0778   27.0478 H   0  0  0  0  0  0  0  0  0  0  0  0
   42.9473   11.4330   26.8376 H   0  0  0  0  0  0  0  0  0  0  0  0
   38.2475   13.5667   29.3202 C   0  0  0  0  0  0  0  0  0  0  0  0
   38.4660   14.4900   29.0040 C   0  0  0  0  0  0  0  0  0  0  0  0
   38.9421   15.1266   29.6106 C   0  0  0  0  0  0  0  0  0  0  0  0
   38.5567   16.0323   29.7869 C   0  0  0  0  0  0  0  0  0  0  0  0
   38.8247   16.5389   30.6064 N   0  0  0  0  0  0  0  0  0  0  0  0
   39.4913   16.1318   31.2624 H   0  0  0  0  0  0  0  0  0  0  0  0
   38.4315   17.4627   30.7862 H   0  0  0  0  0  0  0  0  0  0  0  0
   34.4840   13.8655   28.2941 C   0  0  0  0  0  0  0  0  0  0  0  0
   34.2472   13.3867   29.1396 O   0  0  0  0  0  0  0  0  0  0  0  0
   35.1331   13.4565   27.6528 N   0  0  0  0  0  0  0  0  0  0  0  0
   35.3662   13.9278   26.8205 H   0  0  0  0  0  0  0  0  0  0  0  0
   34.0716   14.7534   28.0900 C   0  0  0  0  0  0  0  0  0  0  0  0
   33.2965   14.8601   26.5448 C   0  0  0  0  0  0  0  0  0  0  0  0
   32.5495   14.2858   26.8797 O   0  0  0  0  0  0  0  0  0  0  0  0
   34.0575   15.0939   27.1499 N   0  0  0  0  0  0  0  0  0  0  0  0
   34.7929   15.6593   26.8202 H   0  0  0  0  0  0  0  0  0  0  0  0
   33.2824   15.2007   25.6047 C   0  0  0  0  0  0  0  0  0  0  0  0
   34.1323   15.0907   24.0995 C   0  0  0  0  0  0  0  0  0  0  0  0
   34.2097   16.0872   24.0704 O   0  0  0  0  0  0  0  0  0  0  0  0
   33.6686   14.6474   24.8666 N   0  0  0  0  0  0  0  0  0  0  0  0
   33.5924   13.6663   24.8953 H   0  0  0  0  0  0  0  0  0  0  0  0
   34.5185   14.5374   23.3614 C   0  0  0  0  0  0  0  0  0  0  0  0
   33.9165   14.1274   22.6763 C   0  0  0  0  0  0  0  0  0  0  0  0
   35.8762   13.4657   23.2725 C   0  0  0  0  0  0  0  0  0  0  0  0
   35.2573   12.6803   23.2895 O   0  0  0  0  0  0  0  0  0  0  0  0
   35.5068   14.3942   23.3085 N   0  0  0  0  0  0  0  0  0  0  0  0
   36.1160   15.1674   23.2918 H   0  0  0  0  0  0  0  0  0  0  0  0
   36.8645   13.3224   23.2196 C   0  0  0  0  0  0  0  0  0  0  0  0
   37.8664   13.7812   24.5559 C   0  0  0  0  0  0  0  0  0  0  0  0
   37.6213   12.9355   25.0299 O   0  0  0  0  0  0  0  0  0  0  0  0
   37.4880   13.9746   23.6507 N   0  0  0  0  0  0  0  0  0  0  0  0
   37.7294   14.8071   23.1839 H   0  0  0  0  0  0  0  0  0  0  0  0
   38.4900   14.4333   24.9870 C   0  0  0  0  0  0  0  0  0  0  0  0
   37.6138   15.7898   25.6132 C   0  0  0  0  0  0  0  0  0  0  0  0
   37.1571   15.1911   26.2712 O   0  0  0  0  0  0  0  0  0  0  0  0
   38.2803   15.4110   24.9711 N   0  0  0  0  0  0  0  0  0  0  0  0
   38.7299   16.0004   24.3234 H   0  0  0  0  0  0  0  0  0  0  0  0
   36.8819   17.1546   24.8375 N   0  0  0  0  0  0  0  0  0  0  0  0
   37.4041   16.7675   25.5974 C   0  0  0  0  0  0  0  0  0  0  0  0
   36.6680   18.1518   24.8212 H   0  0  0  0  0  0  0  0  0  0  0  0
   36.5631   16.5522   24.0785 H   0  0  0  0  0  0  0  0  0  0  0  0
   37.7166   17.3581   26.3414 C   0  0  0  0  0  0  0  0  0  0  0  0
   38.6902   17.4090   26.5641 O   0  0  0  0  0  0  0  0  0  0  0  0
   37.0556   17.8977   26.8627 C   0  0  0  0  0  0  0  0  0  0  0  0
   39.3314   16.8855   26.0584 H   0  0  0  0  0  0  0  0  0  0  0  0
   39.3232   14.1079   25.4339 C   0  0  0  0  0  0  0  0  0  0  0  0
   40.2160   14.4405   25.1302 C   0  0  0  0  0  0  0  0  0  0  0  0
   41.0361   14.2279   25.6616 C   0  0  0  0  0  0  0  0  0  0  0  0
   41.0053   14.2545   26.6608 O   0  0  0  0  0  0  0  0  0  0  0  0
   41.8869   13.9886   25.1938 N   0  0  0  0  0  0  0  0  0  0  0  0
   41.9172   13.9625   24.2102 H   0  0  0  0  0  0  0  0  0  0  0  0
   42.6942   13.7793   25.7170 H   0  0  0  0  0  0  0  0  0  0  0  0
   37.2292   12.5270   22.7355 C   0  0  0  0  0  0  0  0  0  0  0  0
   37.5190   12.6115   21.7822 C   0  0  0  0  0  0  0  0  0  0  0  0
   38.0835   11.8986   21.3662 C   0  0  0  0  0  0  0  0  0  0  0  0
   38.9329   11.6114   21.8091 O   0  0  0  0  0  0  0  0  0  0  0  0
   37.7987   11.4729   20.5073 N   0  0  0  0  0  0  0  0  0  0  0  0
   36.9626   11.7557   20.0713 H   0  0  0  0  0  0  0  0  0  0  0  0
   38.3546   10.7710   20.0977 H   0  0  0  0  0  0  0  0  0  0  0  0
   32.8821   16.0945   25.4026 C   0  0  0  0  0  0  0  0  0  0  0  0
   31.9201   16.2703   25.6117 O   0  0  0  0  0  0  0  0  0  0  0  0
   31.5319   17.1374   25.4156 H   0  0  0  0  0  0  0  0  0  0  0  0
   33.6732   15.3007   28.8262 C   0  0  0  0  0  0  0  0  0  0  0  0
   34.1430   16.1223   29.1488 C   0  0  0  0  0  0  0  0  0  0  0  0
   33.8986   17.0656   28.9241 C   0  0  0  0  0  0  0  0  0  0  0  0
   34.5443   17.6714   29.3892 N   0  0  0  0  0  0  0  0  0  0  0  0
   35.1877   17.1023   29.9013 C   0  0  0  0  0  0  0  0  0  0  0  0
   34.9396   16.1450   29.7527 N   0  0  0  0  0  0  0  0  0  0  0  0
   35.3991   15.3623   30.1341 H   0  0  0  0  0  0  0  0  0  0  0  0
 95 96  1  0  0  0
 95 97  1  0  0  0
 95 98  1  0  0  0
 96 91  1  0  0  0
 96 99  1  0  0  0
 91 92  2  0  0  0
 91 93  1  0  0  0
 93 90  1  0  0  0
 93 94  1  0  0  0
 90103  1  0  0  0
 90 86  1  0  0  0
103104  1  0  0  0
104105  1  0  0  0
105106  2  0  0  0
105107  1  0  0  0
107108  1  0  0  0
107109  1  0  0  0
 86 87  2  0  0  0
 86 88  1  0  0  0
 88 85  1  0  0  0
 88 89  1  0  0  0
 85110  1  0  0  0
 85 81  1  0  0  0
110111  1  0  0  0
111112  1  0  0  0
112113  2  0  0  0
112114  1  0  0  0
114115  1  0  0  0
114116  1  0  0  0
 81 82  2  0  0  0
 81 83  1  0  0  0
 83 79  1  0  0  0
 83 84  1  0  0  0
 79 80  1  0  0  0
 79 75  1  0  0  0
 75 76  2  0  0  0
 75 77  1  0  0  0
 77 74  1  0  0  0
 77 78  1  0  0  0
 74117  1  0  0  0
 74 70  1  0  0  0
117118  1  0  0  0
118119  1  0  0  0
 70 71  2  0  0  0
 70 72  1  0  0  0
 72 69  1  0  0  0
 72 73  1  0  0  0
 69120  1  0  0  0
 69 65  1  0  0  0
120121  1  0  0  0
121125  1  0  0  0
121122  2  0  0  0
122123  1  0  0  0
123124  2  0  0  0
124125  1  0  0  0
125126  1  0  0  0
 65 66  2  0  0  0
 65 67  1  0  0  0
 67  1  1  0  0  0
 67 68  1  0  0  0
  1  2  1  0  0  0
  1 10  1  0  0  0
  2  8  2  0  0  0
  2  3  1  0  0  0
  3  4  2  0  0  0
  4  5  1  0  0  0
  5  6  1  0  0  0
  5  7  2  0  0  0
  6  9  1  0  0  0
  7  8  1  0  0  0
 10 11  2  0  0  0
 10 12  1  0  0  0
 12 14  1  0  0  0
 12 13  1  0  0  0
 14 58  1  0  0  0
 14 15  1  0  0  0
 58 59  1  0  0  0
 59 60  1  0  0  0
 60 61  1  0  0  0
 61 62  1  0  0  0
 62 63  1  0  0  0
 62 64  1  0  0  0
 15 16  2  0  0  0
 15 17  1  0  0  0
 17 19  1  0  0  0
 17 18  1  0  0  0
 19 51  1  0  0  0
 19 20  1  0  0  0
 51 52  1  0  0  0
 52 53  1  0  0  0
 53 54  2  0  0  0
 53 55  1  0  0  0
 55 56  1  0  0  0
 55 57  1  0  0  0
 20 21  2  0  0  0
 20 22  1  0  0  0
 22 24  1  0  0  0
 22 23  1  0  0  0
 24 44  1  0  0  0
 24 25  1  0  0  0
 44 45  1  0  0  0
 45 49  1  0  0  0
 45 46  2  0  0  0
 46 47  1  0  0  0
 47 48  2  0  0  0
 48 49  1  0  0  0
 49 50  1  0  0  0
 25 26  2  0  0  0
 25 27  1  0  0  0
 27 29  1  0  0  0
 27 28  1  0  0  0
 29 41  1  0  0  0
 29 30  1  0  0  0
 41 42  1  0  0  0
 42 43  1  0  0  0
 30 31  2  0  0  0
 30 32  1  0  0  0
 32 36  1  0  0  0
 32 33  1  0  0  0
 33 34  1  0  0  0
 34 35  1  0  0  0
 35 36  1  0  0  0
 36 37  1  0  0  0
 37 38  1  0  0  0
 37 39  2  0  0  0
 38 40  1  0  0  0
 99100  1  0  0  0
 99101  1  0  0  0
100102  1  0  0  0
M  END
> <minimizedAffinity>
-6.91481

$$$$



126129  0  0  0  0  0  0  0  0999 V2000
   35.5804   12.6520   27.6780 C   0  0  0  0  0  0  0  0  0  0  0  0
   35.1029   11.8713   27.2751 C   0  0  0  0  0  0  0  0  0  0  0  0
   34.5262   11.2882   27.8474 C   0  0  0  0  0  0  0  0  0  0  0  0
   34.0487   10.5074   27.4443 C   0  0  0  0  0  0  0  0  0  0  0  0
   34.1478   10.3098   26.4691 C   0  0  0  0  0  0  0  0  0  0  0  0
   33.6702    9.5291   26.0662 O   0  0  0  0  0  0  0  0  0  0  0  0
   34.7244   10.8928   25.8968 C   0  0  0  0  0  0  0  0  0  0  0  0
   35.2020   11.6736   26.2998 C   0  0  0  0  0  0  0  0  0  0  0  0
   33.1299    8.9827   26.6024 H   0  0  0  0  0  0  0  0  0  0  0  0
   36.3797   12.5030   28.2602 C   0  0  0  0  0  0  0  0  0  0  0  0
   37.2966   12.5068   27.8612 O   0  0  0  0  0  0  0  0  0  0  0  0
   36.2620   12.3503   29.2414 N   0  0  0  0  0  0  0  0  0  0  0  0
   35.3593   12.3465   29.6343 H   0  0  0  0  0  0  0  0  0  0  0  0
   37.0613   12.2013   29.8237 C   0  0  0  0  0  0  0  0  0  0  0  0
   37.4264   12.9524   30.3736 C   0  0  0  0  0  0  0  0  0  0  0  0
   36.8069   13.5292   30.9061 O   0  0  0  0  0  0  0  0  0  0  0  0
   38.4109   13.1269   30.3911 N   0  0  0  0  0  0  0  0  0  0  0  0
   39.0207   12.5590   29.8669 H   0  0  0  0  0  0  0  0  0  0  0  0
   38.7759   13.8780   30.9411 C   0  0  0  0  0  0  0  0  0  0  0  0
   38.9306   14.7737   30.5241 C   0  0  0  0  0  0  0  0  0  0  0  0
   38.6180   15.6022   30.9887 O   0  0  0  0  0  0  0  0  0  0  0  0
   39.3978   14.8409   29.6425 N   0  0  0  0  0  0  0  0  0  0  0  0
   39.7056   14.0252   29.1851 H   0  0  0  0  0  0  0  0  0  0  0  0
   39.5525   15.7365   29.2255 C   0  0  0  0  0  0  0  0  0  0  0  0
   40.4476   16.1758   29.3021 C   0  0  0  0  0  0  0  0  0  0  0  0
   40.6193   17.0449   28.8382 O   0  0  0  0  0  0  0  0  0  0  0  0
   41.1709   15.7460   29.8426 N   0  0  0  0  0  0  0  0  0  0  0  0
   41.0018   14.8904   30.2992 H   0  0  0  0  0  0  0  0  0  0  0  0
   42.0660   16.1853   29.9191 C   0  0  0  0  0  0  0  0  0  0  0  0
   42.8869   15.7044   29.6113 C   0  0  0  0  0  0  0  0  0  0  0  0
   43.4120   16.0569   28.8367 O   0  0  0  0  0  0  0  0  0  0  0  0
   43.1828   14.8709   30.0781 N   0  0  0  0  0  0  0  0  0  0  0  0
   42.7279   14.4411   30.8580 C   0  0  0  0  0  0  0  0  0  0  0  0
   43.2495   13.6256   31.1088 C   0  0  0  0  0  0  0  0  0  0  0  0
   44.0267   13.5515   30.4838 C   0  0  0  0  0  0  0  0  0  0  0  0
   43.9854   14.3211   29.8468 C   0  0  0  0  0  0  0  0  0  0  0  0
   44.6330   14.5082   29.1083 C   0  0  0  0  0  0  0  0  0  0  0  0
   44.4881   14.1087   28.2030 O   0  0  0  0  0  0  0  0  0  0  0  0
   45.4257   15.0948   29.2748 O   0  0  0  0  0  0  0  0  0  0  0  0
   43.7455   13.5591   28.0469 H   0  0  0  0  0  0  0  0  0  0  0  0
   42.1401   17.1055   30.3035 C   0  0  0  0  0  0  0  0  0  0  0  0
   42.1987   17.2305   31.2940 S   0  0  0  0  0  0  0  0  0  0  0  0
   42.1775   16.1489   32.1182 H   0  0  0  0  0  0  0  0  0  0  0  0
   38.8121   16.1929   28.7320 C   0  0  0  0  0  0  0  0  0  0  0  0
   38.5374   15.8653   27.8281 C   0  0  0  0  0  0  0  0  0  0  0  0
   37.6737   16.0684   27.3667 C   0  0  0  0  0  0  0  0  0  0  0  0
   37.6806   15.6057   26.4802 N   0  0  0  0  0  0  0  0  0  0  0  0
   38.5485   15.1165   26.3937 C   0  0  0  0  0  0  0  0  0  0  0  0
   39.0780   15.2770   27.2268 N   0  0  0  0  0  0  0  0  0  0  0  0
   39.9742   14.9186   27.4208 H   0  0  0  0  0  0  0  0  0  0  0  0
   38.9862   13.7336   31.9080 C   0  0  0  0  0  0  0  0  0  0  0  0
   39.7372   13.1280   32.1712 C   0  0  0  0  0  0  0  0  0  0  0  0
   39.7720   12.7473   33.0953 C   0  0  0  0  0  0  0  0  0  0  0  0
   39.0363   12.1523   33.4190 O   0  0  0  0  0  0  0  0  0  0  0  0
   40.5426   12.9615   33.6956 N   0  0  0  0  0  0  0  0  0  0  0  0
   41.2669   13.5472   33.3768 H   0  0  0  0  0  0  0  0  0  0  0  0
   40.5769   12.5867   34.6053 H   0  0  0  0  0  0  0  0  0  0  0  0
   37.4956   11.3010   29.8559 C   0  0  0  0  0  0  0  0  0  0  0  0
   37.0246   10.5340   30.2918 C   0  0  0  0  0  0  0  0  0  0  0  0
   37.4289    9.6198   30.2671 C   0  0  0  0  0  0  0  0  0  0  0  0
   37.0069    8.9012   29.7144 C   0  0  0  0  0  0  0  0  0  0  0  0
   36.0572    8.6356   29.8802 N   0  0  0  0  0  0  0  0  0  0  0  0
   35.5189    9.0977   30.6131 H   0  0  0  0  0  0  0  0  0  0  0  0
   35.6268    7.9026   29.3164 H   0  0  0  0  0  0  0  0  0  0  0  0
   34.5590   13.9904   28.0848 C   0  0  0  0  0  0  0  0  0  0  0  0
   34.1810   13.4693   28.8501 O   0  0  0  0  0  0  0  0  0  0  0  0
   35.2587   13.5817   27.4988 N   0  0  0  0  0  0  0  0  0  0  0  0
   35.6309   14.0947   26.7454 H   0  0  0  0  0  0  0  0  0  0  0  0
   34.2373   14.9201   27.9056 C   0  0  0  0  0  0  0  0  0  0  0  0
   33.5705   15.1348   26.3215 C   0  0  0  0  0  0  0  0  0  0  0  0
   32.7764   14.5854   26.5813 O   0  0  0  0  0  0  0  0  0  0  0  0
   34.3010   15.3022   26.9837 N   0  0  0  0  0  0  0  0  0  0  0  0
   35.0828   15.8432   26.7279 H   0  0  0  0  0  0  0  0  0  0  0  0
   33.6342   15.5169   25.3996 C   0  0  0  0  0  0  0  0  0  0  0  0
   34.5749   14.9954   24.0420 C   0  0  0  0  0  0  0  0  0  0  0  0
   35.2651   15.6870   24.2547 O   0  0  0  0  0  0  0  0  0  0  0  0
   33.7594   14.9104   24.6145 N   0  0  0  0  0  0  0  0  0  0  0  0
   33.0798   14.2295   24.4052 H   0  0  0  0  0  0  0  0  0  0  0  0
   34.7001   14.3888   23.2569 C   0  0  0  0  0  0  0  0  0  0  0  0
   33.9260   14.1765   22.6606 C   0  0  0  0  0  0  0  0  0  0  0  0
   35.6922   13.0105   22.9168 C   0  0  0  0  0  0  0  0  0  0  0  0
   34.8856   12.4206   22.9543 O   0  0  0  0  0  0  0  0  0  0  0  0
   35.5995   13.9946   23.0682 N   0  0  0  0  0  0  0  0  0  0  0  0
   36.3937   14.5752   23.0313 H   0  0  0  0  0  0  0  0  0  0  0  0
   36.5917   12.6161   22.7281 C   0  0  0  0  0  0  0  0  0  0  0  0
   37.1474   12.3487   21.1096 C   0  0  0  0  0  0  0  0  0  0  0  0
   37.4542   13.2990   21.0579 O   0  0  0  0  0  0  0  0  0  0  0  0
   36.7162   12.0072   21.9446 N   0  0  0  0  0  0  0  0  0  0  0  0
   36.4141   11.0716   21.9956 H   0  0  0  0  0  0  0  0  0  0  0  0
   37.2719   11.7398   20.3261 C   0  0  0  0  0  0  0  0  0  0  0  0
   38.8743   11.1207   20.1040 C   0  0  0  0  0  0  0  0  0  0  0  0
   38.7439   10.5046   20.8808 O   0  0  0  0  0  0  0  0  0  0  0  0
   38.1383   11.7383   19.8267 N   0  0  0  0  0  0  0  0  0  0  0  0
   38.2666   12.3449   19.0620 H   0  0  0  0  0  0  0  0  0  0  0  0
   40.2497   10.2664   19.4889 N   0  0  0  0  0  0  0  0  0  0  0  0
   39.7406   11.1193   19.6045 C   0  0  0  0  0  0  0  0  0  0  0  0
   41.1333   10.2649   18.9794 H   0  0  0  0  0  0  0  0  0  0  0  0
   39.8852    9.3978   19.8804 H   0  0  0  0  0  0  0  0  0  0  0  0
   40.0979   11.9708   19.2208 C   0  0  0  0  0  0  0  0  0  0  0  0
   40.3360   12.7307   19.8256 O   0  0  0  0  0  0  0  0  0  0  0  0
   40.2172   12.0623   18.2322 C   0  0  0  0  0  0  0  0  0  0  0  0
   40.2203   12.6419   20.7846 H   0  0  0  0  0  0  0  0  0  0  0  0
   36.5301   11.1323   20.0422 C   0  0  0  0  0  0  0  0  0  0  0  0
   35.8765   11.4323   19.3473 C   0  0  0  0  0  0  0  0  0  0  0  0
   34.9661   11.0206   19.3064 C   0  0  0  0  0  0  0  0  0  0  0  0
   34.4462   10.8720   20.1476 O   0  0  0  0  0  0  0  0  0  0  0  0
   34.5755   10.7576   18.4242 N   0  0  0  0  0  0  0  0  0  0  0  0
   35.0873   10.9039   17.5960 H   0  0  0  0  0  0  0  0  0  0  0  0
   33.6792   10.3523   18.3838 H   0  0  0  0  0  0  0  0  0  0  0  0
   37.3665   12.8307   23.3227 C   0  0  0  0  0  0  0  0  0  0  0  0
   37.7676   12.1179   23.8980 C   0  0  0  0  0  0  0  0  0  0  0  0
   38.6778   12.2464   24.2916 C   0  0  0  0  0  0  0  0  0  0  0  0
   38.9088   11.8211   25.1667 O   0  0  0  0  0  0  0  0  0  0  0  0
   39.3572   12.8002   23.8101 N   0  0  0  0  0  0  0  0  0  0  0  0
   39.1298   13.2190   22.9486 H   0  0  0  0  0  0  0  0  0  0  0  0
   40.2534   12.9267   24.1976 H   0  0  0  0  0  0  0  0  0  0  0  0
   33.5725   16.5056   25.2628 C   0  0  0  0  0  0  0  0  0  0  0  0
   32.6848   16.9631   25.3141 O   0  0  0  0  0  0  0  0  0  0  0  0
   32.6251   17.9222   25.1814 H   0  0  0  0  0  0  0  0  0  0  0  0
   33.8519   15.4677   28.6483 C   0  0  0  0  0  0  0  0  0  0  0  0
   34.3978   16.1908   29.0717 C   0  0  0  0  0  0  0  0  0  0  0  0
   34.3650   17.1633   28.8413 C   0  0  0  0  0  0  0  0  0  0  0  0
   35.0192   17.6419   29.4269 N   0  0  0  0  0  0  0  0  0  0  0  0
   35.4564   16.9651   30.0193 C   0  0  0  0  0  0  0  0  0  0  0  0
   35.0722   16.0683   29.7997 N   0  0  0  0  0  0  0  0  0  0  0  0
   35.3154   15.2146   30.2255 H   0  0  0  0  0  0  0  0  0  0  0  0
 95 96  1  0  0  0
 95 97  1  0  0  0
 95 98  1  0  0  0
 96 91  1  0  0  0
 96 99  1  0  0  0
 91 92  2  0  0  0
 91 93  1  0  0  0
 93 90  1  0  0  0
 93 94  1  0  0  0
 90103  1  0  0  0
 90 86  1  0  0  0
103104  1  0  0  0
104105  1  0  0  0
105106  2  0  0  0
105107  1  0  0  0
107108  1  0  0  0
107109  1  0  0  0
 86 87  2  0  0  0
 86 88  1  0  0  0
 88 85  1  0  0  0
 88 89  1  0  0  0
 85110  1  0  0  0
 85 81  1  0  0  0
110111  1  0  0  0
111112  1  0  0  0
112113  2  0  0  0
112114  1  0  0  0
114115  1  0  0  0
114116  1  0  0  0
 81 82  2  0  0  0
 81 83  1  0  0  0
 83 79  1  0  0  0
 83 84  1  0  0  0
 79 80  1  0  0  0
 79 75  1  0  0  0
 75 76  2  0  0  0
 75 77  1  0  0  0
 77 74  1  0  0  0
 77 78  1  0  0  0
 74117  1  0  0  0
 74 70  1  0  0  0
117118  1  0  0  0
118119  1  0  0  0
 70 71  2  0  0  0
 70 72  1  0  0  0
 72 69  1  0  0  0
 72 73  1  0  0  0
 69120  1  0  0  0
 69 65  1  0  0  0
120121  1  0  0  0
121125  1  0  0  0
121122  2  0  0  0
122123  1  0  0  0
123124  2  0  0  0
124125  1  0  0  0
125126  1  0  0  0
 65 66  2  0  0  0
 65 67  1  0  0  0
 67  1  1  0  0  0
 67 68  1  0  0  0
  1  2  1  0  0  0
  1 10  1  0  0  0
  2  8  2  0  0  0
  2  3  1  0  0  0
  3  4  2  0  0  0
  4  5  1  0  0  0
  5  6  1  0  0  0
  5  7  2  0  0  0
  6  9  1  0  0  0
  7  8  1  0  0  0
 10 11  2  0  0  0
 10 12  1  0  0  0
 12 14  1  0  0  0
 12 13  1  0  0  0
 14 58  1  0  0  0
 14 15  1  0  0  0
 58 59  1  0  0  0
 59 60  1  0  0  0
 60 61  1  0  0  0
 61 62  1  0  0  0
 62 63  1  0  0  0
 62 64  1  0  0  0
 15 16  2  0  0  0
 15 17  1  0  0  0
 17 19  1  0  0  0
 17 18  1  0  0  0
 19 51  1  0  0  0
 19 20  1  0  0  0
 51 52  1  0  0  0
 52 53  1  0  0  0
 53 54  2  0  0  0
 53 55  1  0  0  0
 55 56  1  0  0  0
 55 57  1  0  0  0
 20 21  2  0  0  0
 20 22  1  0  0  0
 22 24  1  0  0  0
 22 23  1  0  0  0
 24 44  1  0  0  0
 24 25  1  0  0  0
 44 45  1  0  0  0
 45 49  1  0  0  0
 45 46  2  0  0  0
 46 47  1  0  0  0
 47 48  2  0  0  0
 48 49  1  0  0  0
 49 50  1  0  0  0
 25 26  2  0  0  0
 25 27  1  0  0  0
 27 29  1  0  0  0
 27 28  1  0  0  0
 29 41  1  0  0  0
 29 30  1  0  0  0
 41 42  1  0  0  0
 42 43  1  0  0  0
 30 31  2  0  0  0
 30 32  1  0  0  0
 32 36  1  0  0  0
 32 33  1  0  0  0
 33 34  1  0  0  0
 34 35  1  0  0  0
 35 36  1  0  0  0
 36 37  1  0  0  0
 37 38  1  0  0  0
 37 39  2  0  0  0
 38 40  1  0  0  0
 99100  1  0  0  0
 99101  1  0  0  0
100102  1  0  0  0
M  END
> <minimizedAffinity>
-6.85537

$$$$



126129  0  0  0  0  0  0  0  0999 V2000
   38.8898   16.1826   29.3007 C   0  0  0  0  0  0  0  0  0  0  0  0
   39.0892   15.5502   30.0493 C   0  0  0  0  0  0  0  0  0  0  0  0
   39.0130   14.5638   29.9042 C   0  0  0  0  0  0  0  0  0  0  0  0
   39.2124   13.9314   30.6528 C   0  0  0  0  0  0  0  0  0  0  0  0
   39.4879   14.2855   31.5465 C   0  0  0  0  0  0  0  0  0  0  0  0
   39.6873   13.6531   32.2950 O   0  0  0  0  0  0  0  0  0  0  0  0
   39.5641   15.2720   31.6916 C   0  0  0  0  0  0  0  0  0  0  0  0
   39.3647   15.9043   30.9431 C   0  0  0  0  0  0  0  0  0  0  0  0
   39.6159   12.7288   32.1590 H   0  0  0  0  0  0  0  0  0  0  0  0
   39.6161   16.4553   28.6698 C   0  0  0  0  0  0  0  0  0  0  0  0
   39.8355   17.4234   28.5483 O   0  0  0  0  0  0  0  0  0  0  0  0
   40.1231   15.7600   28.1604 N   0  0  0  0  0  0  0  0  0  0  0  0
   39.9071   14.8070   28.2801 H   0  0  0  0  0  0  0  0  0  0  0  0
   40.8494   16.0327   27.5294 C   0  0  0  0  0  0  0  0  0  0  0  0
   41.7957   16.0841   27.8485 C   0  0  0  0  0  0  0  0  0  0  0  0
   42.3160   16.9307   27.7361 O   0  0  0  0  0  0  0  0  0  0  0  0
   42.2218   15.2889   28.2799 N   0  0  0  0  0  0  0  0  0  0  0  0
   41.7097   14.4555   28.3905 H   0  0  0  0  0  0  0  0  0  0  0  0
   43.1682   15.3403   28.5990 C   0  0  0  0  0  0  0  0  0  0  0  0
   43.9193   15.1364   27.9711 C   0  0  0  0  0  0  0  0  0  0  0  0
   44.7761   15.6482   28.0337 O   0  0  0  0  0  0  0  0  0  0  0  0
   43.8135   14.4208   27.2807 N   0  0  0  0  0  0  0  0  0  0  0  0
   42.9700   13.9170   27.2191 H   0  0  0  0  0  0  0  0  0  0  0  0
   44.5646   14.2169   26.6528 C   0  0  0  0  0  0  0  0  0  0  0  0
   44.5742   14.6191   25.7373 C   0  0  0  0  0  0  0  0  0  0  0  0
   43.8972   14.3339   25.0589 O   0  0  0  0  0  0  0  0  0  0  0  0
   45.2607   15.3065   25.5003 N   0  0  0  0  0  0  0  0  0  0  0  0
   45.9272   15.5872   26.1683 H   0  0  0  0  0  0  0  0  0  0  0  0
   45.2703   15.7087   24.5848 C   0  0  0  0  0  0  0  0  0  0  0  0
   46.0778   15.6093   24.0034 C   0  0  0  0  0  0  0  0  0  0  0  0
   46.1157   14.8793   23.3210 O   0  0  0  0  0  0  0  0  0  0  0  0
   46.8473   16.2399   24.1044 N   0  0  0  0  0  0  0  0  0  0  0  0
   46.9047   16.9979   24.7542 C   0  0  0  0  0  0  0  0  0  0  0  0
   47.7874   17.4496   24.6247 C   0  0  0  0  0  0  0  0  0  0  0  0
   48.2755   16.9708   23.8950 C   0  0  0  0  0  0  0  0  0  0  0  0
   47.6945   16.2231   23.5735 C   0  0  0  0  0  0  0  0  0  0  0  0
   47.9210   15.5729   22.8483 C   0  0  0  0  0  0  0  0  0  0  0  0
   48.3362   14.6926   23.0779 O   0  0  0  0  0  0  0  0  0  0  0  0
   47.7322   15.8029   21.8936 O   0  0  0  0  0  0  0  0  0  0  0  0
   48.5131   14.4771   23.9724 H   0  0  0  0  0  0  0  0  0  0  0  0
   44.4722   16.2104   24.2507 C   0  0  0  0  0  0  0  0  0  0  0  0
   44.1625   16.0865   23.3080 S   0  0  0  0  0  0  0  0  0  0  0  0
   44.8264   15.2359   22.4803 H   0  0  0  0  0  0  0  0  0  0  0  0
   45.3062   13.6108   26.9404 C   0  0  0  0  0  0  0  0  0  0  0  0
   45.2011   12.6195   26.8610 C   0  0  0  0  0  0  0  0  0  0  0  0
   44.7915   12.0152   27.5445 C   0  0  0  0  0  0  0  0  0  0  0  0
   44.8243   11.0807   27.1901 N   0  0  0  0  0  0  0  0  0  0  0  0
   45.2542   11.1074   26.2876 C   0  0  0  0  0  0  0  0  0  0  0  0
   45.4871   12.0585   26.0842 N   0  0  0  0  0  0  0  0  0  0  0  0
   45.9216   12.3850   25.2633 H   0  0  0  0  0  0  0  0  0  0  0  0
   43.3634   15.5956   29.5460 C   0  0  0  0  0  0  0  0  0  0  0  0
   43.0929   14.9888   30.2933 C   0  0  0  0  0  0  0  0  0  0  0  0
   43.3892   15.1842   31.2282 C   0  0  0  0  0  0  0  0  0  0  0  0
   44.0050   14.5529   31.6998 O   0  0  0  0  0  0  0  0  0  0  0  0
   43.0697   16.0108   31.6916 N   0  0  0  0  0  0  0  0  0  0  0  0
   42.4635   16.6322   31.2273 H   0  0  0  0  0  0  0  0  0  0  0  0
   43.3615   16.2031   32.6120 H   0  0  0  0  0  0  0  0  0  0  0  0
   40.6294   16.2539   26.5793 C   0  0  0  0  0  0  0  0  0  0  0  0
   40.4124   15.5223   25.9330 C   0  0  0  0  0  0  0  0  0  0  0  0
   40.1028   15.7471   25.0090 C   0  0  0  0  0  0  0  0  0  0  0  0
   39.9940   15.0228   24.3281 C   0  0  0  0  0  0  0  0  0  0  0  0
   39.0789   14.7370   24.0440 N   0  0  0  0  0  0  0  0  0  0  0  0
   38.2562   15.1843   24.4487 H   0  0  0  0  0  0  0  0  0  0  0  0
   38.9679   13.9983   23.3495 H   0  0  0  0  0  0  0  0  0  0  0  0
   37.3305   16.0952   28.5519 C   0  0  0  0  0  0  0  0  0  0  0  0
   37.6225   15.2884   28.0381 O   0  0  0  0  0  0  0  0  0  0  0  0
   37.9642   16.5423   29.1831 N   0  0  0  0  0  0  0  0  0  0  0  0
   37.6768   17.3365   29.6889 H   0  0  0  0  0  0  0  0  0  0  0  0
   36.4049   16.4549   28.4343 C   0  0  0  0  0  0  0  0  0  0  0  0
   35.0829   15.8046   29.3450 C   0  0  0  0  0  0  0  0  0  0  0  0
   35.3349   16.3810   30.1223 O   0  0  0  0  0  0  0  0  0  0  0  0
   35.6179   15.8415   28.5010 N   0  0  0  0  0  0  0  0  0  0  0  0
   35.3699   15.2740   27.7356 H   0  0  0  0  0  0  0  0  0  0  0  0
   34.2960   15.1912   29.4117 C   0  0  0  0  0  0  0  0  0  0  0  0
   34.0206   13.5634   29.9354 C   0  0  0  0  0  0  0  0  0  0  0  0
   33.5044   13.9036   30.7214 O   0  0  0  0  0  0  0  0  0  0  0  0
   34.4164   14.2072   29.2806 N   0  0  0  0  0  0  0  0  0  0  0  0
   34.9246   13.8724   28.5068 H   0  0  0  0  0  0  0  0  0  0  0  0
   34.1411   12.5794   29.8043 C   0  0  0  0  0  0  0  0  0  0  0  0
   34.1675   11.9690   30.5959 C   0  0  0  0  0  0  0  0  0  0  0  0
   35.0540   11.6886   28.6326 C   0  0  0  0  0  0  0  0  0  0  0  0
   35.7788   11.5451   29.3064 O   0  0  0  0  0  0  0  0  0  0  0  0
   34.2351   12.2057   28.8815 N   0  0  0  0  0  0  0  0  0  0  0  0
   33.5215   12.3470   28.2181 H   0  0  0  0  0  0  0  0  0  0  0  0
   35.1481   11.3149   27.7097 C   0  0  0  0  0  0  0  0  0  0  0  0
   35.4743   12.3277   26.3430 C   0  0  0  0  0  0  0  0  0  0  0  0
   36.4519   12.2928   26.5505 O   0  0  0  0  0  0  0  0  0  0  0  0
   34.8224   11.8387   26.9226 N   0  0  0  0  0  0  0  0  0  0  0  0
   33.8600   11.8730   26.7183 H   0  0  0  0  0  0  0  0  0  0  0  0
   35.1487   12.8515   25.5559 C   0  0  0  0  0  0  0  0  0  0  0  0
   34.0754   14.1870   25.8098 C   0  0  0  0  0  0  0  0  0  0  0  0
   34.8523   14.7632   26.0633 O   0  0  0  0  0  0  0  0  0  0  0  0
   34.2235   13.2311   25.5561 N   0  0  0  0  0  0  0  0  0  0  0  0
   33.4586   12.6638   25.3065 H   0  0  0  0  0  0  0  0  0  0  0  0
   32.4057   14.0690   26.2551 N   0  0  0  0  0  0  0  0  0  0  0  0
   33.1502   14.5666   25.8100 C   0  0  0  0  0  0  0  0  0  0  0  0
   31.4620   14.4562   26.2553 H   0  0  0  0  0  0  0  0  0  0  0  0
   32.5900   13.1743   26.7090 H   0  0  0  0  0  0  0  0  0  0  0  0
   32.9695   15.4437   25.3650 C   0  0  0  0  0  0  0  0  0  0  0  0
   32.7079   16.2380   25.9133 O   0  0  0  0  0  0  0  0  0  0  0  0
   33.0504   15.5265   24.3718 C   0  0  0  0  0  0  0  0  0  0  0  0
   32.6294   16.1577   26.8768 H   0  0  0  0  0  0  0  0  0  0  0  0
   35.7481   12.9956   24.7686 C   0  0  0  0  0  0  0  0  0  0  0  0
   35.4661   12.6829   23.8616 C   0  0  0  0  0  0  0  0  0  0  0  0
   35.9963   12.9448   23.0551 C   0  0  0  0  0  0  0  0  0  0  0  0
   36.3211   12.2433   22.4208 O   0  0  0  0  0  0  0  0  0  0  0  0
   36.2017   13.9083   22.8830 N   0  0  0  0  0  0  0  0  0  0  0  0
   35.8819   14.5989   23.5075 H   0  0  0  0  0  0  0  0  0  0  0  0
   36.7236   14.1661   22.0891 H   0  0  0  0  0  0  0  0  0  0  0  0
   35.5679   10.4175   27.5741 C   0  0  0  0  0  0  0  0  0  0  0  0
   35.0066    9.5911   27.6186 C   0  0  0  0  0  0  0  0  0  0  0  0
   35.3999    8.7056   27.3714 C   0  0  0  0  0  0  0  0  0  0  0  0
   35.7314    8.5479   26.4412 O   0  0  0  0  0  0  0  0  0  0  0  0
   35.4618    7.9778   28.0544 N   0  0  0  0  0  0  0  0  0  0  0  0
   35.1355    8.1330   28.9702 H   0  0  0  0  0  0  0  0  0  0  0  0
   35.8491    7.1060   27.8110 H   0  0  0  0  0  0  0  0  0  0  0  0
   33.3885   15.5619   29.6096 C   0  0  0  0  0  0  0  0  0  0  0  0
   32.8769   16.0395   28.8954 O   0  0  0  0  0  0  0  0  0  0  0  0
   31.9966   16.3991   29.0873 H   0  0  0  0  0  0  0  0  0  0  0  0
   36.2662   17.4280   28.2499 C   0  0  0  0  0  0  0  0  0  0  0  0
   35.9410   17.7255   27.3523 C   0  0  0  0  0  0  0  0  0  0  0  0
   35.1205   18.2690   27.1750 C   0  0  0  0  0  0  0  0  0  0  0  0
   35.0515   18.4111   26.1875 N   0  0  0  0  0  0  0  0  0  0  0  0
   35.8293   17.9554   25.7546 C   0  0  0  0  0  0  0  0  0  0  0  0
   36.3790   17.5317   26.4746 N   0  0  0  0  0  0  0  0  0  0  0  0
   37.2062   17.0145   26.3423 H   0  0  0  0  0  0  0  0  0  0  0  0
 95 96  1  0  0  0
 95 97  1  0  0  0
 95 98  1  0  0  0
 96 91  1  0  0  0
 96 99  1  0  0  0
 91 92  2  0  0  0
 91 93  1  0  0  0
 93 90  1  0  0  0
 93 94  1  0  0  0
 90103  1  0  0  0
 90 86  1  0  0  0
103104  1  0  0  0
104105  1  0  0  0
105106  2  0  0  0
105107  1  0  0  0
107108  1  0  0  0
107109  1  0  0  0
 86 87  2  0  0  0
 86 88  1  0  0  0
 88 85  1  0  0  0
 88 89  1  0  0  0
 85110  1  0  0  0
 85 81  1  0  0  0
110111  1  0  0  0
111112  1  0  0  0
112113  2  0  0  0
112114  1  0  0  0
114115  1  0  0  0
114116  1  0  0  0
 81 82  2  0  0  0
 81 83  1  0  0  0
 83 79  1  0  0  0
 83 84  1  0  0  0
 79 80  1  0  0  0
 79 75  1  0  0  0
 75 76  2  0  0  0
 75 77  1  0  0  0
 77 74  1  0  0  0
 77 78  1  0  0  0
 74117  1  0  0  0
 74 70  1  0  0  0
117118  1  0  0  0
118119  1  0  0  0
 70 71  2  0  0  0
 70 72  1  0  0  0
 72 69  1  0  0  0
 72 73  1  0  0  0
 69120  1  0  0  0
 69 65  1  0  0  0
120121  1  0  0  0
121125  1  0  0  0
121122  2  0  0  0
122123  1  0  0  0
123124  2  0  0  0
124125  1  0  0  0
125126  1  0  0  0
 65 66  2  0  0  0
 65 67  1  0  0  0
 67  1  1  0  0  0
 67 68  1  0  0  0
  1  2  1  0  0  0
  1 10  1  0  0  0
  2  8  2  0  0  0
  2  3  1  0  0  0
  3  4  2  0  0  0
  4  5  1  0  0  0
  5  6  1  0  0  0
  5  7  2  0  0  0
  6  9  1  0  0  0
  7  8  1  0  0  0
 10 11  2  0  0  0
 10 12  1  0  0  0
 12 14  1  0  0  0
 12 13  1  0  0  0
 14 58  1  0  0  0
 14 15  1  0  0  0
 58 59  1  0  0  0
 59 60  1  0  0  0
 60 61  1  0  0  0
 61 62  1  0  0  0
 62 63  1  0  0  0
 62 64  1  0  0  0
 15 16  2  0  0  0
 15 17  1  0  0  0
 17 19  1  0  0  0
 17 18  1  0  0  0
 19 51  1  0  0  0
 19 20  1  0  0  0
 51 52  1  0  0  0
 52 53  1  0  0  0
 53 54  2  0  0  0
 53 55  1  0  0  0
 55 56  1  0  0  0
 55 57  1  0  0  0
 20 21  2  0  0  0
 20 22  1  0  0  0
 22 24  1  0  0  0
 22 23  1  0  0  0
 24 44  1  0  0  0
 24 25  1  0  0  0
 44 45  1  0  0  0
 45 49  1  0  0  0
 45 46  2  0  0  0
 46 47  1  0  0  0
 47 48  2  0  0  0
 48 49  1  0  0  0
 49 50  1  0  0  0
 25 26  2  0  0  0
 25 27  1  0  0  0
 27 29  1  0  0  0
 27 28  1  0  0  0
 29 41  1  0  0  0
 29 30  1  0  0  0
 41 42  1  0  0  0
 42 43  1  0  0  0
 30 31  2  0  0  0
 30 32  1  0  0  0
 32 36  1  0  0  0
 32 33  1  0  0  0
 33 34  1  0  0  0
 34 35  1  0  0  0
 35 36  1  0  0  0
 36 37  1  0  0  0
 37 38  1  0  0  0
 37 39  2  0  0  0
 38 40  1  0  0  0
 99100  1  0  0  0
 99101  1  0  0  0
100102  1  0  0  0
M  END
> <minimizedAffinity>
-6.84491

$$$$



126129  0  0  0  0  0  0  0  0999 V2000
   38.3411    8.6123   28.5204 C   0  0  0  0  0  0  0  0  0  0  0  0
   38.7909    8.4743   27.6381 C   0  0  0  0  0  0  0  0  0  0  0  0
   38.7825    7.5713   27.2084 C   0  0  0  0  0  0  0  0  0  0  0  0
   39.2324    7.4333   26.3260 C   0  0  0  0  0  0  0  0  0  0  0  0
   39.6907    8.1982   25.8733 C   0  0  0  0  0  0  0  0  0  0  0  0
   40.1405    8.0601   24.9910 O   0  0  0  0  0  0  0  0  0  0  0  0
   39.6991    9.1011   26.3030 C   0  0  0  0  0  0  0  0  0  0  0  0
   39.2492    9.2392   27.1853 C   0  0  0  0  0  0  0  0  0  0  0  0
   40.1326    7.2140   24.5884 H   0  0  0  0  0  0  0  0  0  0  0  0
   38.7301    8.2088   29.3485 C   0  0  0  0  0  0  0  0  0  0  0  0
   38.5050    7.2672   29.5992 O   0  0  0  0  0  0  0  0  0  0  0  0
   39.3442    8.7467   29.9259 N   0  0  0  0  0  0  0  0  0  0  0  0
   39.5658    9.6737   29.6791 H   0  0  0  0  0  0  0  0  0  0  0  0
   39.7333    8.3432   30.7541 C   0  0  0  0  0  0  0  0  0  0  0  0
   40.5929    7.8345   30.7062 C   0  0  0  0  0  0  0  0  0  0  0  0
   40.7739    7.0962   31.3559 O   0  0  0  0  0  0  0  0  0  0  0  0
   41.2716    8.0643   30.0086 N   0  0  0  0  0  0  0  0  0  0  0  0
   41.0934    8.7912   29.3691 H   0  0  0  0  0  0  0  0  0  0  0  0
   42.1312    7.5556   29.9607 C   0  0  0  0  0  0  0  0  0  0  0  0
   42.9779    7.9724   30.2916 C   0  0  0  0  0  0  0  0  0  0  0  0
   43.6420    7.4217   30.7971 O   0  0  0  0  0  0  0  0  0  0  0  0
   43.1604    8.9401   30.1168 N   0  0  0  0  0  0  0  0  0  0  0  0
   42.5066    9.4823   29.6191 H   0  0  0  0  0  0  0  0  0  0  0  0
   44.0070    9.3569   30.4477 C   0  0  0  0  0  0  0  0  0  0  0  0
   44.8368    9.3124   29.8914 C   0  0  0  0  0  0  0  0  0  0  0  0
   45.7205    9.1359   30.3249 O   0  0  0  0  0  0  0  0  0  0  0  0
   44.7830    9.4443   28.9016 N   0  0  0  0  0  0  0  0  0  0  0  0
   43.9130    9.6181   28.4749 H   0  0  0  0  0  0  0  0  0  0  0  0
   45.6127    9.3998   28.3453 C   0  0  0  0  0  0  0  0  0  0  0  0
   45.8081    8.5825   27.8033 C   0  0  0  0  0  0  0  0  0  0  0  0
   46.6127    8.0259   28.0102 O   0  0  0  0  0  0  0  0  0  0  0  0
   45.1988    8.3218   27.0544 N   0  0  0  0  0  0  0  0  0  0  0  0
   44.3737    8.8104   26.7708 C   0  0  0  0  0  0  0  0  0  0  0  0
   43.9727    8.3172   25.9987 C   0  0  0  0  0  0  0  0  0  0  0  0
   44.5501    7.5240   25.8052 C   0  0  0  0  0  0  0  0  0  0  0  0
   45.3078    7.5268   26.4576 C   0  0  0  0  0  0  0  0  0  0  0  0
   46.0451    6.8530   26.5050 C   0  0  0  0  0  0  0  0  0  0  0  0
   45.9676    6.0694   27.1215 O   0  0  0  0  0  0  0  0  0  0  0  0
   46.8601    6.9627   25.9359 O   0  0  0  0  0  0  0  0  0  0  0  0
   45.2040    5.9667   27.6548 H   0  0  0  0  0  0  0  0  0  0  0  0
   46.2472   10.1727   28.3311 C   0  0  0  0  0  0  0  0  0  0  0  0
   45.9769   11.0337   27.9003 S   0  0  0  0  0  0  0  0  0  0  0  0
   44.7464   11.1536   27.3337 H   0  0  0  0  0  0  0  0  0  0  0  0
   44.0239    9.8181   31.3347 C   0  0  0  0  0  0  0  0  0  0  0  0
   43.5997   10.7177   31.4387 C   0  0  0  0  0  0  0  0  0  0  0  0
   42.6728   10.8959   31.7693 C   0  0  0  0  0  0  0  0  0  0  0  0
   42.5281   11.8853   31.7652 N   0  0  0  0  0  0  0  0  0  0  0  0
   43.3655   12.3187   31.4320 C   0  0  0  0  0  0  0  0  0  0  0  0
   44.0277   11.5970   31.2302 N   0  0  0  0  0  0  0  0  0  0  0  0
   44.9408   11.7292   30.8866 H   0  0  0  0  0  0  0  0  0  0  0  0
   42.1442    6.6302   29.5820 C   0  0  0  0  0  0  0  0  0  0  0  0
   42.2191    6.4953   28.5940 C   0  0  0  0  0  0  0  0  0  0  0  0
   42.1025    5.5820   28.2038 C   0  0  0  0  0  0  0  0  0  0  0  0
   41.1918    5.1717   28.1549 O   0  0  0  0  0  0  0  0  0  0  0  0
   42.8965    5.0790   27.8625 N   0  0  0  0  0  0  0  0  0  0  0  0
   43.7931    5.4830   27.9107 H   0  0  0  0  0  0  0  0  0  0  0  0
   42.7817    4.1798   27.4783 H   0  0  0  0  0  0  0  0  0  0  0  0
   39.2626    8.4483   31.6302 C   0  0  0  0  0  0  0  0  0  0  0  0
   39.3230    9.3126   32.1296 C   0  0  0  0  0  0  0  0  0  0  0  0
   38.8791    9.4071   33.0207 C   0  0  0  0  0  0  0  0  0  0  0  0
   39.2648   10.0219   33.7087 C   0  0  0  0  0  0  0  0  0  0  0  0
   38.6651   10.6323   34.2262 N   0  0  0  0  0  0  0  0  0  0  0  0
   37.6600   10.6279   34.0522 H   0  0  0  0  0  0  0  0  0  0  0  0
   39.0584   11.2593   34.9279 H   0  0  0  0  0  0  0  0  0  0  0  0
   36.6179    8.6977   28.6732 C   0  0  0  0  0  0  0  0  0  0  0  0
   36.5724    7.6996   28.7175 O   0  0  0  0  0  0  0  0  0  0  0  0
   37.5022    9.1540   28.5747 N   0  0  0  0  0  0  0  0  0  0  0  0
   37.5470   10.1365   28.5310 H   0  0  0  0  0  0  0  0  0  0  0  0
   35.7790    9.2393   28.7274 C   0  0  0  0  0  0  0  0  0  0  0  0
   35.6246   10.2542   30.1225 C   0  0  0  0  0  0  0  0  0  0  0  0
   35.4343    9.4504   30.6862 O   0  0  0  0  0  0  0  0  0  0  0  0
   35.7970   10.1486   29.1431 N   0  0  0  0  0  0  0  0  0  0  0  0
   35.9844   10.9399   28.5882 H   0  0  0  0  0  0  0  0  0  0  0  0
   35.6426   11.1635   30.5382 C   0  0  0  0  0  0  0  0  0  0  0  0
   37.0201   12.1158   30.9802 C   0  0  0  0  0  0  0  0  0  0  0  0
   36.9581   11.7708   31.9167 O   0  0  0  0  0  0  0  0  0  0  0  0
   36.3624   11.8122   30.2909 N   0  0  0  0  0  0  0  0  0  0  0  0
   36.4234   12.1518   29.3689 H   0  0  0  0  0  0  0  0  0  0  0  0
   37.7399   12.7645   30.7330 C   0  0  0  0  0  0  0  0  0  0  0  0
   38.3861   13.0827   31.4267 C   0  0  0  0  0  0  0  0  0  0  0  0
   38.4552   12.6622   29.1589 C   0  0  0  0  0  0  0  0  0  0  0  0
   39.0233   11.8990   29.4667 O   0  0  0  0  0  0  0  0  0  0  0  0
   37.8135   13.0950   29.7921 N   0  0  0  0  0  0  0  0  0  0  0  0
   37.2543   13.8464   29.4891 H   0  0  0  0  0  0  0  0  0  0  0  0
   38.5289   12.9927   28.2179 C   0  0  0  0  0  0  0  0  0  0  0  0
   37.0918   12.8895   27.2567 C   0  0  0  0  0  0  0  0  0  0  0  0
   37.2207   11.9017   27.1700 O   0  0  0  0  0  0  0  0  0  0  0  0
   37.7459   13.4351   27.7806 N   0  0  0  0  0  0  0  0  0  0  0  0
   37.6190   14.4076   27.8660 H   0  0  0  0  0  0  0  0  0  0  0  0
   36.3087   13.3319   26.8194 C   0  0  0  0  0  0  0  0  0  0  0  0
   34.9942   13.8390   27.8267 C   0  0  0  0  0  0  0  0  0  0  0  0
   34.6700   12.8945   27.8792 O   0  0  0  0  0  0  0  0  0  0  0  0
   35.8136   14.0577   27.2968 N   0  0  0  0  0  0  0  0  0  0  0  0
   36.1328   14.9876   27.2452 H   0  0  0  0  0  0  0  0  0  0  0  0
   33.5773   14.8183   28.0104 N   0  0  0  0  0  0  0  0  0  0  0  0
   34.4990   14.5649   28.3042 C   0  0  0  0  0  0  0  0  0  0  0  0
   33.0723   15.5586   28.4973 H   0  0  0  0  0  0  0  0  0  0  0  0
   33.1423   14.3363   27.2237 H   0  0  0  0  0  0  0  0  0  0  0  0
   34.9255   15.0375   29.0754 C   0  0  0  0  0  0  0  0  0  0  0  0
   35.0491   14.5622   29.9465 O   0  0  0  0  0  0  0  0  0  0  0  0
   35.2284   15.9852   28.9755 C   0  0  0  0  0  0  0  0  0  0  0  0
   34.7553   13.6428   30.0434 H   0  0  0  0  0  0  0  0  0  0  0  0
   36.0209   13.0484   25.9047 C   0  0  0  0  0  0  0  0  0  0  0  0
   36.1689   13.6549   25.1235 C   0  0  0  0  0  0  0  0  0  0  0  0
   35.9617   13.3378   24.1980 C   0  0  0  0  0  0  0  0  0  0  0  0
   35.2409   12.6605   24.0511 O   0  0  0  0  0  0  0  0  0  0  0  0
   36.4754   13.6982   23.4193 N   0  0  0  0  0  0  0  0  0  0  0  0
   37.1850   14.3651   23.5640 H   0  0  0  0  0  0  0  0  0  0  0  0
   36.2714   13.3861   22.5082 H   0  0  0  0  0  0  0  0  0  0  0  0
   39.3855   12.8809   27.7143 C   0  0  0  0  0  0  0  0  0  0  0  0
   39.9500   13.6792   27.5044 C   0  0  0  0  0  0  0  0  0  0  0  0
   40.7016   13.6018   26.8494 C   0  0  0  0  0  0  0  0  0  0  0  0
   40.6136   12.9991   26.0563 O   0  0  0  0  0  0  0  0  0  0  0  0
   41.5412   14.1272   26.9874 N   0  0  0  0  0  0  0  0  0  0  0  0
   41.6278   14.7207   27.7681 H   0  0  0  0  0  0  0  0  0  0  0  0
   42.2812   14.0510   26.3425 H   0  0  0  0  0  0  0  0  0  0  0  0
   34.9408   11.4241   31.2011 C   0  0  0  0  0  0  0  0  0  0  0  0
   34.1076   11.8832   30.8928 O   0  0  0  0  0  0  0  0  0  0  0  0
   33.4268   12.1360   31.5359 H   0  0  0  0  0  0  0  0  0  0  0  0
   34.9222    8.8716   28.3660 C   0  0  0  0  0  0  0  0  0  0  0  0
   34.5153    9.2686   27.5433 C   0  0  0  0  0  0  0  0  0  0  0  0
   33.5848    9.6258   27.4614 C   0  0  0  0  0  0  0  0  0  0  0  0
   33.4618    9.9561   26.5256 N   0  0  0  0  0  0  0  0  0  0  0  0
   34.3164    9.8031   26.0291 C   0  0  0  0  0  0  0  0  0  0  0  0
   34.9673    9.3782   26.6581 N   0  0  0  0  0  0  0  0  0  0  0  0
   35.8912    9.1142   26.4436 H   0  0  0  0  0  0  0  0  0  0  0  0
 95 96  1  0  0  0
 95 97  1  0  0  0
 95 98  1  0  0  0
 96 91  1  0  0  0
 96 99  1  0  0  0
 91 92  2  0  0  0
 91 93  1  0  0  0
 93 90  1  0  0  0
 93 94  1  0  0  0
 90103  1  0  0  0
 90 86  1  0  0  0
103104  1  0  0  0
104105  1  0  0  0
105106  2  0  0  0
105107  1  0  0  0
107108  1  0  0  0
107109  1  0  0  0
 86 87  2  0  0  0
 86 88  1  0  0  0
 88 85  1  0  0  0
 88 89  1  0  0  0
 85110  1  0  0  0
 85 81  1  0  0  0
110111  1  0  0  0
111112  1  0  0  0
112113  2  0  0  0
112114  1  0  0  0
114115  1  0  0  0
114116  1  0  0  0
 81 82  2  0  0  0
 81 83  1  0  0  0
 83 79  1  0  0  0
 83 84  1  0  0  0
 79 80  1  0  0  0
 79 75  1  0  0  0
 75 76  2  0  0  0
 75 77  1  0  0  0
 77 74  1  0  0  0
 77 78  1  0  0  0
 74117  1  0  0  0
 74 70  1  0  0  0
117118  1  0  0  0
118119  1  0  0  0
 70 71  2  0  0  0
 70 72  1  0  0  0
 72 69  1  0  0  0
 72 73  1  0  0  0
 69120  1  0  0  0
 69 65  1  0  0  0
120121  1  0  0  0
121125  1  0  0  0
121122  2  0  0  0
122123  1  0  0  0
123124  2  0  0  0
124125  1  0  0  0
125126  1  0  0  0
 65 66  2  0  0  0
 65 67  1  0  0  0
 67  1  1  0  0  0
 67 68  1  0  0  0
  1  2  1  0  0  0
  1 10  1  0  0  0
  2  8  2  0  0  0
  2  3  1  0  0  0
  3  4  2  0  0  0
  4  5  1  0  0  0
  5  6  1  0  0  0
  5  7  2  0  0  0
  6  9  1  0  0  0
  7  8  1  0  0  0
 10 11  2  0  0  0
 10 12  1  0  0  0
 12 14  1  0  0  0
 12 13  1  0  0  0
 14 58  1  0  0  0
 14 15  1  0  0  0
 58 59  1  0  0  0
 59 60  1  0  0  0
 60 61  1  0  0  0
 61 62  1  0  0  0
 62 63  1  0  0  0
 62 64  1  0  0  0
 15 16  2  0  0  0
 15 17  1  0  0  0
 17 19  1  0  0  0
 17 18  1  0  0  0
 19 51  1  0  0  0
 19 20  1  0  0  0
 51 52  1  0  0  0
 52 53  1  0  0  0
 53 54  2  0  0  0
 53 55  1  0  0  0
 55 56  1  0  0  0
 55 57  1  0  0  0
 20 21  2  0  0  0
 20 22  1  0  0  0
 22 24  1  0  0  0
 22 23  1  0  0  0
 24 44  1  0  0  0
 24 25  1  0  0  0
 44 45  1  0  0  0
 45 49  1  0  0  0
 45 46  2  0  0  0
 46 47  1  0  0  0
 47 48  2  0  0  0
 48 49  1  0  0  0
 49 50  1  0  0  0
 25 26  2  0  0  0
 25 27  1  0  0  0
 27 29  1  0  0  0
 27 28  1  0  0  0
 29 41  1  0  0  0
 29 30  1  0  0  0
 41 42  1  0  0  0
 42 43  1  0  0  0
 30 31  2  0  0  0
 30 32  1  0  0  0
 32 36  1  0  0  0
 32 33  1  0  0  0
 33 34  1  0  0  0
 34 35  1  0  0  0
 35 36  1  0  0  0
 36 37  1  0  0  0
 37 38  1  0  0  0
 37 39  2  0  0  0
 38 40  1  0  0  0
 99100  1  0  0  0
 99101  1  0  0  0
100102  1  0  0  0
M  END
> <minimizedAffinity>
-6.83838

$$$$
