


126129  0  0  0  0  0  0  0  0999 V2000
   35.8763   40.4604  -32.9966 C   0  0  0  0  0  0  0  0  0  0  0  0
   36.7896   40.5825  -31.7988 C   0  0  0  0  0  0  0  0  0  0  0  0
   38.1296   40.1600  -31.8645 C   0  0  0  0  0  0  0  0  0  0  0  0
   38.9769   40.3236  -30.7660 C   0  0  0  0  0  0  0  0  0  0  0  0
   38.4937   40.8922  -29.5808 C   0  0  0  0  0  0  0  0  0  0  0  0
   39.3480   41.0539  -28.4907 O   0  0  0  0  0  0  0  0  0  0  0  0
   37.1569   41.3005  -29.5014 C   0  0  0  0  0  0  0  0  0  0  0  0
   36.3139   41.1543  -30.6081 C   0  0  0  0  0  0  0  0  0  0  0  0
   39.0101   41.4214  -27.6089 H   0  0  0  0  0  0  0  0  0  0  0  0
   35.3058   41.8033  -33.3710 C   0  0  0  0  0  0  0  0  0  0  0  0
   36.0630   42.7397  -33.7386 O   0  0  0  0  0  0  0  0  0  0  0  0
   33.8937   42.0317  -33.2670 N   0  0  0  0  0  0  0  0  0  0  0  0
   33.2671   41.2662  -33.6072 H   0  0  0  0  0  0  0  0  0  0  0  0
   33.2778   43.0484  -32.3985 C   0  0  0  0  0  0  0  0  0  0  0  0
   32.4201   42.3595  -31.3635 C   0  0  0  0  0  0  0  0  0  0  0  0
   32.6104   41.1422  -31.0799 O   0  0  0  0  0  0  0  0  0  0  0  0
   31.3753   43.0938  -30.7103 N   0  0  0  0  0  0  0  0  0  0  0  0
   31.3767   44.1355  -30.8020 H   0  0  0  0  0  0  0  0  0  0  0  0
   30.1359   42.4444  -30.2682 C   0  0  0  0  0  0  0  0  0  0  0  0
   29.3592   43.3797  -29.3729 C   0  0  0  0  0  0  0  0  0  0  0  0
   29.8492   44.5009  -29.0745 O   0  0  0  0  0  0  0  0  0  0  0  0
   28.0411   43.0235  -28.9170 N   0  0  0  0  0  0  0  0  0  0  0  0
   27.6476   42.1129  -29.2542 H   0  0  0  0  0  0  0  0  0  0  0  0
   27.1539   43.9991  -28.2618 C   0  0  0  0  0  0  0  0  0  0  0  0
   26.5066   43.4273  -27.0166 C   0  0  0  0  0  0  0  0  0  0  0  0
   25.4726   42.7139  -27.1295 O   0  0  0  0  0  0  0  0  0  0  0  0
   26.9486   43.7868  -25.6936 N   0  0  0  0  0  0  0  0  0  0  0  0
   26.1933   43.9375  -24.9833 H   0  0  0  0  0  0  0  0  0  0  0  0
   28.3171   43.6366  -25.1656 C   0  0  0  0  0  0  0  0  0  0  0  0
   28.4537   44.2510  -23.7906 C   0  0  0  0  0  0  0  0  0  0  0  0
   28.1927   43.5683  -22.7692 O   0  0  0  0  0  0  0  0  0  0  0  0
   28.7531   45.6439  -23.6265 N   0  0  0  0  0  0  0  0  0  0  0  0
   30.1047   46.1420  -23.4391 C   0  0  0  0  0  0  0  0  0  0  0  0
   29.9497   47.5432  -22.8664 C   0  0  0  0  0  0  0  0  0  0  0  0
   28.5144   47.9586  -23.1821 C   0  0  0  0  0  0  0  0  0  0  0  0
   27.7367   46.6534  -23.3597 C   0  0  0  0  0  0  0  0  0  0  0  0
   26.9513   46.3163  -22.1220 C   0  0  0  0  0  0  0  0  0  0  0  0
   27.6209   45.9951  -20.9500 O   0  0  0  0  0  0  0  0  0  0  0  0
   25.6916   46.2941  -22.1558 O   0  0  0  0  0  0  0  0  0  0  0  0
   27.1109   45.7507  -20.1099 H   0  0  0  0  0  0  0  0  0  0  0  0
   28.7758   42.1650  -25.2167 C   0  0  0  0  0  0  0  0  0  0  0  0
   27.4343   41.0126  -24.7663 S   0  0  0  0  0  0  0  0  0  0  0  0
   26.5545   41.4344  -25.7739 H   0  0  0  0  0  0  0  0  0  0  0  0
   26.0861   44.4884  -29.2641 C   0  0  0  0  0  0  0  0  0  0  0  0
   26.1291   45.9800  -29.4751 C   0  0  0  0  0  0  0  0  0  0  0  0
   27.1939   46.7097  -29.9524 C   0  0  0  0  0  0  0  0  0  0  0  0
   26.8649   48.0159  -29.9652 N   0  0  0  0  0  0  0  0  0  0  0  0
   25.6047   48.0484  -29.4814 C   0  0  0  0  0  0  0  0  0  0  0  0
   25.1293   46.8277  -29.1749 N   0  0  0  0  0  0  0  0  0  0  0  0
   24.2033   46.5981  -28.7503 H   0  0  0  0  0  0  0  0  0  0  0  0
   29.2776   42.0536  -31.4901 C   0  0  0  0  0  0  0  0  0  0  0  0
   28.8623   43.2736  -32.3299 C   0  0  0  0  0  0  0  0  0  0  0  0
   27.5080   43.0710  -32.9511 C   0  0  0  0  0  0  0  0  0  0  0  0
   26.9153   44.0413  -33.4942 O   0  0  0  0  0  0  0  0  0  0  0  0
   26.8826   41.7864  -32.9218 N   0  0  0  0  0  0  0  0  0  0  0  0
   25.9620   41.6370  -33.3919 H   0  0  0  0  0  0  0  0  0  0  0  0
   27.3242   40.9823  -32.4246 H   0  0  0  0  0  0  0  0  0  0  0  0
   32.5034   44.1387  -33.1821 C   0  0  0  0  0  0  0  0  0  0  0  0
   32.4682   45.4853  -32.4390 C   0  0  0  0  0  0  0  0  0  0  0  0
   33.8013   45.8259  -31.7486 C   0  0  0  0  0  0  0  0  0  0  0  0
   34.3485   47.2368  -32.0502 C   0  0  0  0  0  0  0  0  0  0  0  0
   33.8362   47.7822  -33.3097 N   0  0  0  0  0  0  0  0  0  0  0  0
   32.8213   48.0137  -33.1904 H   0  0  0  0  0  0  0  0  0  0  0  0
   33.9145   47.0584  -34.0533 H   0  0  0  0  0  0  0  0  0  0  0  0
   36.2594   38.5395  -34.5685 C   0  0  0  0  0  0  0  0  0  0  0  0
   36.1591   37.6018  -33.7330 O   0  0  0  0  0  0  0  0  0  0  0  0
   36.5913   39.8581  -34.1261 N   0  0  0  0  0  0  0  0  0  0  0  0
   37.2189   40.4472  -34.7217 H   0  0  0  0  0  0  0  0  0  0  0  0
   35.8248   38.3306  -35.9896 C   0  0  0  0  0  0  0  0  0  0  0  0
   33.9944   40.0709  -36.3284 C   0  0  0  0  0  0  0  0  0  0  0  0
   32.9376   40.4846  -35.7686 O   0  0  0  0  0  0  0  0  0  0  0  0
   34.4150   38.7158  -36.0958 N   0  0  0  0  0  0  0  0  0  0  0  0
   33.7049   38.0776  -35.6764 H   0  0  0  0  0  0  0  0  0  0  0  0
   34.7357   40.9622  -37.3024 C   0  0  0  0  0  0  0  0  0  0  0  0
   36.2597   42.9802  -37.1463 C   0  0  0  0  0  0  0  0  0  0  0  0
   37.1984   42.3570  -37.7150 O   0  0  0  0  0  0  0  0  0  0  0  0
   35.0901   42.2636  -36.7173 N   0  0  0  0  0  0  0  0  0  0  0  0
   34.4739   42.7173  -36.0089 H   0  0  0  0  0  0  0  0  0  0  0  0
   36.3408   44.4728  -36.9305 C   0  0  0  0  0  0  0  0  0  0  0  0
   36.8119   45.1479  -38.2180 C   0  0  0  0  0  0  0  0  0  0  0  0
   36.9282   45.8736  -34.8766 C   0  0  0  0  0  0  0  0  0  0  0  0
   35.9424   46.6347  -35.0736 O   0  0  0  0  0  0  0  0  0  0  0  0
   37.2350   44.8276  -35.8146 N   0  0  0  0  0  0  0  0  0  0  0  0
   38.1114   44.2898  -35.6459 H   0  0  0  0  0  0  0  0  0  0  0  0
   37.7839   46.0708  -33.6495 C   0  0  0  0  0  0  0  0  0  0  0  0
   38.8600   47.9853  -32.3796 C   0  0  0  0  0  0  0  0  0  0  0  0
   39.9415   48.5623  -32.6829 O   0  0  0  0  0  0  0  0  0  0  0  0
   38.0177   47.5022  -33.4326 N   0  0  0  0  0  0  0  0  0  0  0  0
   37.9347   48.1230  -34.2630 H   0  0  0  0  0  0  0  0  0  0  0  0
   38.4308   47.9753  -30.9218 C   0  0  0  0  0  0  0  0  0  0  0  0
   38.9279   46.6848  -28.8231 C   0  0  0  0  0  0  0  0  0  0  0  0
   38.0002   47.1213  -28.0873 O   0  0  0  0  0  0  0  0  0  0  0  0
   38.7757   46.7225  -30.2460 N   0  0  0  0  0  0  0  0  0  0  0  0
   38.8734   45.8336  -30.7814 H   0  0  0  0  0  0  0  0  0  0  0  0
   40.6243   47.1056  -27.1129 N   0  0  0  0  0  0  0  0  0  0  0  0
   40.2296   46.2126  -28.2106 C   0  0  0  0  0  0  0  0  0  0  0  0
   41.5849   46.8339  -26.7969 H   0  0  0  0  0  0  0  0  0  0  0  0
   40.7141   48.0760  -27.4899 H   0  0  0  0  0  0  0  0  0  0  0  0
   40.1406   44.7440  -27.7393 C   0  0  0  0  0  0  0  0  0  0  0  0
   39.1166   44.0978  -28.4597 O   0  0  0  0  0  0  0  0  0  0  0  0
   41.4582   43.9808  -27.9348 C   0  0  0  0  0  0  0  0  0  0  0  0
   38.9091   43.2591  -27.9742 H   0  0  0  0  0  0  0  0  0  0  0  0
   36.9311   48.2853  -30.7731 C   0  0  0  0  0  0  0  0  0  0  0  0
   36.6287   49.7455  -30.3921 C   0  0  0  0  0  0  0  0  0  0  0  0
   35.5634   49.8504  -29.3300 C   0  0  0  0  0  0  0  0  0  0  0  0
   34.5428   50.5679  -29.4978 O   0  0  0  0  0  0  0  0  0  0  0  0
   35.7029   49.1124  -28.1175 N   0  0  0  0  0  0  0  0  0  0  0  0
   34.9648   49.1615  -27.3835 H   0  0  0  0  0  0  0  0  0  0  0  0
   36.5212   48.4762  -27.9713 H   0  0  0  0  0  0  0  0  0  0  0  0
   39.1228   45.2737  -33.6381 C   0  0  0  0  0  0  0  0  0  0  0  0
   39.2619   44.1144  -32.6293 C   0  0  0  0  0  0  0  0  0  0  0  0
   40.5196   44.0926  -31.7911 C   0  0  0  0  0  0  0  0  0  0  0  0
   41.0341   45.1904  -31.4604 O   0  0  0  0  0  0  0  0  0  0  0  0
   41.1748   42.8825  -31.3968 N   0  0  0  0  0  0  0  0  0  0  0  0
   40.9147   41.9505  -31.7800 H   0  0  0  0  0  0  0  0  0  0  0  0
   42.0263   42.9286  -30.7884 H   0  0  0  0  0  0  0  0  0  0  0  0
   33.8787   41.1522  -38.5712 C   0  0  0  0  0  0  0  0  0  0  0  0
   32.9156   40.1344  -38.6830 O   0  0  0  0  0  0  0  0  0  0  0  0
   32.1192   40.4422  -38.1705 H   0  0  0  0  0  0  0  0  0  0  0  0
   36.0328   36.8749  -36.4465 C   0  0  0  0  0  0  0  0  0  0  0  0
   36.3993   36.8260  -37.9028 C   0  0  0  0  0  0  0  0  0  0  0  0
   35.7284   37.4593  -38.9328 C   0  0  0  0  0  0  0  0  0  0  0  0
   36.3114   37.1316  -40.1045 N   0  0  0  0  0  0  0  0  0  0  0  0
   37.3257   36.3066  -39.7554 C   0  0  0  0  0  0  0  0  0  0  0  0
   37.4077   36.1108  -38.4231 N   0  0  0  0  0  0  0  0  0  0  0  0
   38.0881   35.5010  -37.9205 H   0  0  0  0  0  0  0  0  0  0  0  0
 95 96  1  0  0  0
 96 91  1  0  0  0
 91 92  2  0  0  0
 91 93  1  0  0  0
 93 90  1  0  0  0
 90103  1  0  0  0
103104  1  0  0  0
104105  1  0  0  0
105106  2  0  0  0
105107  1  0  0  0
 90 86  1  0  0  0
 86 87  2  0  0  0
 86 88  1  0  0  0
 88 85  1  0  0  0
 85110  1  0  0  0
110111  1  0  0  0
111112  1  0  0  0
112113  2  0  0  0
112114  1  0  0  0
 85 81  1  0  0  0
 81 82  2  0  0  0
 81 83  1  0  0  0
 83 79  1  0  0  0
 79 80  1  0  0  0
 79 75  1  0  0  0
 75 76  2  0  0  0
 75 77  1  0  0  0
 77 74  1  0  0  0
 74117  1  0  0  0
117118  1  0  0  0
 74 70  1  0  0  0
 70 71  2  0  0  0
 70 72  1  0  0  0
 72 69  1  0  0  0
 69120  1  0  0  0
120121  1  0  0  0
121122  2  0  0  0
122123  1  0  0  0
123124  2  0  0  0
124125  1  0  0  0
 69 65  1  0  0  0
 65 66  2  0  0  0
 65 67  1  0  0  0
 67  1  1  0  0  0
  1  2  1  0  0  0
  2  3  2  0  0  0
  3  4  1  0  0  0
  4  5  2  0  0  0
  5  6  1  0  0  0
  5  7  1  0  0  0
  7  8  2  0  0  0
  1 10  1  0  0  0
 10 11  2  0  0  0
 10 12  1  0  0  0
 12 14  1  0  0  0
 14 58  1  0  0  0
 58 59  1  0  0  0
 59 60  1  0  0  0
 60 61  1  0  0  0
 61 62  1  0  0  0
 14 15  1  0  0  0
 15 16  2  0  0  0
 15 17  1  0  0  0
 17 19  1  0  0  0
 19 51  1  0  0  0
 51 52  1  0  0  0
 52 53  1  0  0  0
 53 54  2  0  0  0
 53 55  1  0  0  0
 19 20  1  0  0  0
 20 21  2  0  0  0
 20 22  1  0  0  0
 22 24  1  0  0  0
 24 44  1  0  0  0
 44 45  1  0  0  0
 45 46  2  0  0  0
 46 47  1  0  0  0
 47 48  2  0  0  0
 48 49  1  0  0  0
 24 25  1  0  0  0
 25 26  2  0  0  0
 25 27  1  0  0  0
 27 29  1  0  0  0
 29 41  1  0  0  0
 41 42  1  0  0  0
 29 30  1  0  0  0
 30 31  2  0  0  0
 30 32  1  0  0  0
 32 33  1  0  0  0
 33 34  1  0  0  0
 34 35  1  0  0  0
 35 36  1  0  0  0
 36 37  1  0  0  0
 37 38  1  0  0  0
 37 39  2  0  0  0
 96 99  1  0  0  0
 99100  1  0  0  0
 99101  1  0  0  0
125121  1  0  0  0
  8  2  1  0  0  0
 49 45  1  0  0  0
 36 32  1  0  0  0
 95 97  1  0  0  0
 95 98  1  0  0  0
 93 94  1  0  0  0
107108  1  0  0  0
107109  1  0  0  0
 88 89  1  0  0  0
114115  1  0  0  0
114116  1  0  0  0
 83 84  1  0  0  0
 77 78  1  0  0  0
118119  1  0  0  0
 72 73  1  0  0  0
125126  1  0  0  0
 67 68  1  0  0  0
  6  9  1  0  0  0
 12 13  1  0  0  0
 62 63  1  0  0  0
 62 64  1  0  0  0
 17 18  1  0  0  0
 55 56  1  0  0  0
 55 57  1  0  0  0
 22 23  1  0  0  0
 49 50  1  0  0  0
 27 28  1  0  0  0
 42 43  1  0  0  0
 38 40  1  0  0  0
100102  1  0  0  0
M  END
> <minimizedAffinity>
-6.94082

$$$$



126129  0  0  0  0  0  0  0  0999 V2000
   35.8937   40.4731  -33.0173 C   0  0  0  0  0  0  0  0  0  0  0  0
   36.8380   40.6014  -31.8444 C   0  0  0  0  0  0  0  0  0  0  0  0
   38.2085   40.3176  -31.9843 C   0  0  0  0  0  0  0  0  0  0  0  0
   39.0791   40.4875  -30.9053 C   0  0  0  0  0  0  0  0  0  0  0  0
   38.5913   40.9234  -29.6669 C   0  0  0  0  0  0  0  0  0  0  0  0
   39.4689   41.0926  -28.5966 O   0  0  0  0  0  0  0  0  0  0  0  0
   37.2259   41.1925  -29.5145 C   0  0  0  0  0  0  0  0  0  0  0  0
   36.3575   41.0409  -30.6005 C   0  0  0  0  0  0  0  0  0  0  0  0
   39.1327   41.3639  -27.6800 H   0  0  0  0  0  0  0  0  0  0  0  0
   35.2856   41.8079  -33.3605 C   0  0  0  0  0  0  0  0  0  0  0  0
   36.0074   42.7507  -33.7792 O   0  0  0  0  0  0  0  0  0  0  0  0
   33.8805   42.0213  -33.1683 N   0  0  0  0  0  0  0  0  0  0  0  0
   33.2422   41.2473  -33.4649 H   0  0  0  0  0  0  0  0  0  0  0  0
   33.3092   43.0354  -32.2669 C   0  0  0  0  0  0  0  0  0  0  0  0
   32.4382   42.3497  -31.2410 C   0  0  0  0  0  0  0  0  0  0  0  0
   32.6631   41.1513  -30.9067 O   0  0  0  0  0  0  0  0  0  0  0  0
   31.3415   43.0646  -30.6548 N   0  0  0  0  0  0  0  0  0  0  0  0
   31.3072   44.1018  -30.7839 H   0  0  0  0  0  0  0  0  0  0  0  0
   30.1111   42.3829  -30.2369 C   0  0  0  0  0  0  0  0  0  0  0  0
   29.3325   43.2658  -29.2917 C   0  0  0  0  0  0  0  0  0  0  0  0
   29.9071   44.2418  -28.7406 O   0  0  0  0  0  0  0  0  0  0  0  0
   27.9285   43.0367  -29.0717 N   0  0  0  0  0  0  0  0  0  0  0  0
   27.4800   42.2586  -29.6113 H   0  0  0  0  0  0  0  0  0  0  0  0
   27.0812   44.0134  -28.3672 C   0  0  0  0  0  0  0  0  0  0  0  0
   26.4928   43.4375  -27.0950 C   0  0  0  0  0  0  0  0  0  0  0  0
   25.7015   42.4581  -27.1681 O   0  0  0  0  0  0  0  0  0  0  0  0
   26.6942   44.0599  -25.8115 N   0  0  0  0  0  0  0  0  0  0  0  0
   25.8615   44.0795  -25.1761 H   0  0  0  0  0  0  0  0  0  0  0  0
   27.9962   44.3575  -25.1867 C   0  0  0  0  0  0  0  0  0  0  0  0
   27.8283   44.9462  -23.8040 C   0  0  0  0  0  0  0  0  0  0  0  0
   28.1941   46.1258  -23.5753 O   0  0  0  0  0  0  0  0  0  0  0  0
   27.3762   44.1431  -22.7052 N   0  0  0  0  0  0  0  0  0  0  0  0
   25.9822   44.0722  -22.3030 C   0  0  0  0  0  0  0  0  0  0  0  0
   25.9917   43.5140  -20.8875 C   0  0  0  0  0  0  0  0  0  0  0  0
   27.3606   42.8597  -20.7139 C   0  0  0  0  0  0  0  0  0  0  0  0
   28.2774   43.5458  -21.7281 C   0  0  0  0  0  0  0  0  0  0  0  0
   29.1303   44.5939  -21.0675 C   0  0  0  0  0  0  0  0  0  0  0  0
   28.5341   45.7248  -20.5282 O   0  0  0  0  0  0  0  0  0  0  0  0
   30.3833   44.4626  -21.0313 O   0  0  0  0  0  0  0  0  0  0  0  0
   29.0917   46.4491  -20.0924 H   0  0  0  0  0  0  0  0  0  0  0  0
   28.9199   43.1226  -25.2080 C   0  0  0  0  0  0  0  0  0  0  0  0
   30.6753   43.5757  -24.9993 S   0  0  0  0  0  0  0  0  0  0  0  0
   30.5009   44.2117  -23.7614 H   0  0  0  0  0  0  0  0  0  0  0  0
   25.9682   44.5158  -29.3121 C   0  0  0  0  0  0  0  0  0  0  0  0
   26.0457   46.0001  -29.5617 C   0  0  0  0  0  0  0  0  0  0  0  0
   27.1784   46.7230  -29.8592 C   0  0  0  0  0  0  0  0  0  0  0  0
   26.8541   48.0252  -29.9763 N   0  0  0  0  0  0  0  0  0  0  0  0
   25.5263   48.0626  -29.7341 C   0  0  0  0  0  0  0  0  0  0  0  0
   25.0056   46.8485  -29.4793 N   0  0  0  0  0  0  0  0  0  0  0  0
   24.0178   46.6248  -29.2249 H   0  0  0  0  0  0  0  0  0  0  0  0
   29.2477   42.0446  -31.4708 C   0  0  0  0  0  0  0  0  0  0  0  0
   28.9081   43.2892  -32.3085 C   0  0  0  0  0  0  0  0  0  0  0  0
   27.5601   43.1547  -32.9611 C   0  0  0  0  0  0  0  0  0  0  0  0
   27.0483   44.1421  -33.5533 O   0  0  0  0  0  0  0  0  0  0  0  0
   26.8494   41.9161  -32.9063 N   0  0  0  0  0  0  0  0  0  0  0  0
   25.9335   41.8113  -33.3973 H   0  0  0  0  0  0  0  0  0  0  0  0
   27.2227   41.1027  -32.3698 H   0  0  0  0  0  0  0  0  0  0  0  0
   32.5660   44.1725  -33.0132 C   0  0  0  0  0  0  0  0  0  0  0  0
   32.6058   45.5053  -32.2459 C   0  0  0  0  0  0  0  0  0  0  0  0
   34.0178   46.1139  -32.1712 C   0  0  0  0  0  0  0  0  0  0  0  0
   34.0708   47.6515  -32.2904 C   0  0  0  0  0  0  0  0  0  0  0  0
   34.1789   48.1053  -33.6791 N   0  0  0  0  0  0  0  0  0  0  0  0
   33.2682   47.9267  -34.1656 H   0  0  0  0  0  0  0  0  0  0  0  0
   34.9149   47.5517  -34.1639 H   0  0  0  0  0  0  0  0  0  0  0  0
   36.3090   38.5582  -34.5882 C   0  0  0  0  0  0  0  0  0  0  0  0
   36.2978   37.6259  -33.7409 O   0  0  0  0  0  0  0  0  0  0  0  0
   36.5885   39.8977  -34.1731 N   0  0  0  0  0  0  0  0  0  0  0  0
   37.1554   40.5130  -34.8020 H   0  0  0  0  0  0  0  0  0  0  0  0
   35.8224   38.3103  -35.9861 C   0  0  0  0  0  0  0  0  0  0  0  0
   33.9861   40.0454  -36.3195 C   0  0  0  0  0  0  0  0  0  0  0  0
   32.9532   40.4850  -35.7353 O   0  0  0  0  0  0  0  0  0  0  0  0
   34.4109   38.6980  -36.0522 N   0  0  0  0  0  0  0  0  0  0  0  0
   33.7154   38.0796  -35.5818 H   0  0  0  0  0  0  0  0  0  0  0  0
   34.6919   40.8958  -37.3545 C   0  0  0  0  0  0  0  0  0  0  0  0
   36.3305   42.8201  -37.1778 C   0  0  0  0  0  0  0  0  0  0  0  0
   37.2790   42.0935  -37.5844 O   0  0  0  0  0  0  0  0  0  0  0  0
   35.0722   42.2170  -36.8336 N   0  0  0  0  0  0  0  0  0  0  0  0
   34.4157   42.7665  -36.2382 H   0  0  0  0  0  0  0  0  0  0  0  0
   36.4943   44.3176  -37.0689 C   0  0  0  0  0  0  0  0  0  0  0  0
   37.1686   44.8486  -38.3333 C   0  0  0  0  0  0  0  0  0  0  0  0
   36.8960   45.8173  -35.0403 C   0  0  0  0  0  0  0  0  0  0  0  0
   35.9684   46.5957  -35.3915 O   0  0  0  0  0  0  0  0  0  0  0  0
   37.2682   44.7092  -35.8780 N   0  0  0  0  0  0  0  0  0  0  0  0
   38.0989   44.1553  -35.5797 H   0  0  0  0  0  0  0  0  0  0  0  0
   37.6131   46.0594  -33.7350 C   0  0  0  0  0  0  0  0  0  0  0  0
   37.9295   47.9498  -32.0730 C   0  0  0  0  0  0  0  0  0  0  0  0
   38.7200   48.9262  -32.2008 O   0  0  0  0  0  0  0  0  0  0  0  0
   37.3088   47.4076  -33.2445 N   0  0  0  0  0  0  0  0  0  0  0  0
   36.9929   48.1039  -33.9495 H   0  0  0  0  0  0  0  0  0  0  0  0
   37.5535   47.5038  -30.6697 C   0  0  0  0  0  0  0  0  0  0  0  0
   36.0522   49.1260  -29.4731 C   0  0  0  0  0  0  0  0  0  0  0  0
   35.1612   48.3268  -29.0733 O   0  0  0  0  0  0  0  0  0  0  0  0
   37.3660   48.6326  -29.7555 N   0  0  0  0  0  0  0  0  0  0  0  0
   38.1772   49.0657  -29.2647 H   0  0  0  0  0  0  0  0  0  0  0  0
   35.2248   51.2176  -28.5138 N   0  0  0  0  0  0  0  0  0  0  0  0
   35.7112   50.5763  -29.7428 C   0  0  0  0  0  0  0  0  0  0  0  0
   34.8758   52.1742  -28.7577 H   0  0  0  0  0  0  0  0  0  0  0  0
   34.3900   50.6903  -28.1719 H   0  0  0  0  0  0  0  0  0  0  0  0
   36.9098   51.3438  -30.3436 C   0  0  0  0  0  0  0  0  0  0  0  0
   36.4737   52.0434  -31.4862 O   0  0  0  0  0  0  0  0  0  0  0  0
   37.5345   52.3336  -29.3501 C   0  0  0  0  0  0  0  0  0  0  0  0
   37.2862   52.3089  -31.9879 H   0  0  0  0  0  0  0  0  0  0  0  0
   38.5746   46.5018  -30.1036 C   0  0  0  0  0  0  0  0  0  0  0  0
   37.9429   45.2195  -29.5330 C   0  0  0  0  0  0  0  0  0  0  0  0
   38.2954   45.0050  -28.0826 C   0  0  0  0  0  0  0  0  0  0  0  0
   38.5284   43.8534  -27.6309 O   0  0  0  0  0  0  0  0  0  0  0  0
   38.3830   46.1267  -27.2060 N   0  0  0  0  0  0  0  0  0  0  0  0
   38.6440   45.9939  -26.2059 H   0  0  0  0  0  0  0  0  0  0  0  0
   38.2351   47.0982  -27.5663 H   0  0  0  0  0  0  0  0  0  0  0  0
   39.1502   45.8046  -33.7641 C   0  0  0  0  0  0  0  0  0  0  0  0
   39.9956   46.6163  -34.7678 C   0  0  0  0  0  0  0  0  0  0  0  0
   40.7673   45.8253  -35.7992 C   0  0  0  0  0  0  0  0  0  0  0  0
   40.1774   44.8903  -36.3965 O   0  0  0  0  0  0  0  0  0  0  0  0
   42.1482   46.0624  -36.0927 N   0  0  0  0  0  0  0  0  0  0  0  0
   42.7466   46.6903  -35.5176 H   0  0  0  0  0  0  0  0  0  0  0  0
   42.6225   45.5034  -36.8410 H   0  0  0  0  0  0  0  0  0  0  0  0
   33.7875   41.0409  -38.5960 C   0  0  0  0  0  0  0  0  0  0  0  0
   32.8019   40.0388  -38.6184 O   0  0  0  0  0  0  0  0  0  0  0  0
   32.0330   40.3877  -38.0905 H   0  0  0  0  0  0  0  0  0  0  0  0
   36.0093   36.8413  -36.4080 C   0  0  0  0  0  0  0  0  0  0  0  0
   37.4696   36.5075  -36.5256 C   0  0  0  0  0  0  0  0  0  0  0  0
   38.3175   36.9109  -37.5406 C   0  0  0  0  0  0  0  0  0  0  0  0
   39.5347   36.3645  -37.3401 N   0  0  0  0  0  0  0  0  0  0  0  0
   39.3952   35.6424  -36.2041 C   0  0  0  0  0  0  0  0  0  0  0  0
   38.1531   35.7187  -35.6832 N   0  0  0  0  0  0  0  0  0  0  0  0
   37.8007   35.2329  -34.8304 H   0  0  0  0  0  0  0  0  0  0  0  0
 95 96  1  0  0  0
 96 91  1  0  0  0
 91 92  2  0  0  0
 91 93  1  0  0  0
 93 90  1  0  0  0
 90103  1  0  0  0
103104  1  0  0  0
104105  1  0  0  0
105106  2  0  0  0
105107  1  0  0  0
 90 86  1  0  0  0
 86 87  2  0  0  0
 86 88  1  0  0  0
 88 85  1  0  0  0
 85110  1  0  0  0
110111  1  0  0  0
111112  1  0  0  0
112113  2  0  0  0
112114  1  0  0  0
 85 81  1  0  0  0
 81 82  2  0  0  0
 81 83  1  0  0  0
 83 79  1  0  0  0
 79 80  1  0  0  0
 79 75  1  0  0  0
 75 76  2  0  0  0
 75 77  1  0  0  0
 77 74  1  0  0  0
 74117  1  0  0  0
117118  1  0  0  0
 74 70  1  0  0  0
 70 71  2  0  0  0
 70 72  1  0  0  0
 72 69  1  0  0  0
 69120  1  0  0  0
120121  1  0  0  0
121122  2  0  0  0
122123  1  0  0  0
123124  2  0  0  0
124125  1  0  0  0
 69 65  1  0  0  0
 65 66  2  0  0  0
 65 67  1  0  0  0
 67  1  1  0  0  0
  1  2  1  0  0  0
  2  3  2  0  0  0
  3  4  1  0  0  0
  4  5  2  0  0  0
  5  6  1  0  0  0
  5  7  1  0  0  0
  7  8  2  0  0  0
  1 10  1  0  0  0
 10 11  2  0  0  0
 10 12  1  0  0  0
 12 14  1  0  0  0
 14 58  1  0  0  0
 58 59  1  0  0  0
 59 60  1  0  0  0
 60 61  1  0  0  0
 61 62  1  0  0  0
 14 15  1  0  0  0
 15 16  2  0  0  0
 15 17  1  0  0  0
 17 19  1  0  0  0
 19 51  1  0  0  0
 51 52  1  0  0  0
 52 53  1  0  0  0
 53 54  2  0  0  0
 53 55  1  0  0  0
 19 20  1  0  0  0
 20 21  2  0  0  0
 20 22  1  0  0  0
 22 24  1  0  0  0
 24 44  1  0  0  0
 44 45  1  0  0  0
 45 46  2  0  0  0
 46 47  1  0  0  0
 47 48  2  0  0  0
 48 49  1  0  0  0
 24 25  1  0  0  0
 25 26  2  0  0  0
 25 27  1  0  0  0
 27 29  1  0  0  0
 29 41  1  0  0  0
 41 42  1  0  0  0
 29 30  1  0  0  0
 30 31  2  0  0  0
 30 32  1  0  0  0
 32 33  1  0  0  0
 33 34  1  0  0  0
 34 35  1  0  0  0
 35 36  1  0  0  0
 36 37  1  0  0  0
 37 38  1  0  0  0
 37 39  2  0  0  0
 96 99  1  0  0  0
 99100  1  0  0  0
 99101  1  0  0  0
125121  1  0  0  0
  8  2  1  0  0  0
 49 45  1  0  0  0
 36 32  1  0  0  0
 95 97  1  0  0  0
 95 98  1  0  0  0
 93 94  1  0  0  0
107108  1  0  0  0
107109  1  0  0  0
 88 89  1  0  0  0
114115  1  0  0  0
114116  1  0  0  0
 83 84  1  0  0  0
 77 78  1  0  0  0
118119  1  0  0  0
 72 73  1  0  0  0
125126  1  0  0  0
 67 68  1  0  0  0
  6  9  1  0  0  0
 12 13  1  0  0  0
 62 63  1  0  0  0
 62 64  1  0  0  0
 17 18  1  0  0  0
 55 56  1  0  0  0
 55 57  1  0  0  0
 22 23  1  0  0  0
 49 50  1  0  0  0
 27 28  1  0  0  0
 42 43  1  0  0  0
 38 40  1  0  0  0
100102  1  0  0  0
M  END
> <minimizedAffinity>
-6.86236

$$$$



126129  0  0  0  0  0  0  0  0999 V2000
   -2.7634   41.0336  -39.8542 C   0  0  0  0  0  0  0  0  0  0  0  0
   -2.5943   42.4669  -40.3022 C   0  0  0  0  0  0  0  0  0  0  0  0
   -1.4691   43.2177  -39.9163 C   0  0  0  0  0  0  0  0  0  0  0  0
   -1.3001   44.5254  -40.3774 C   0  0  0  0  0  0  0  0  0  0  0  0
   -2.2608   45.1086  -41.2131 C   0  0  0  0  0  0  0  0  0  0  0  0
   -2.0816   46.4136  -41.6703 O   0  0  0  0  0  0  0  0  0  0  0  0
   -3.3918   44.3740  -41.5887 C   0  0  0  0  0  0  0  0  0  0  0  0
   -3.5511   43.0579  -41.1426 C   0  0  0  0  0  0  0  0  0  0  0  0
   -2.7842   46.8717  -42.2390 H   0  0  0  0  0  0  0  0  0  0  0  0
   -3.1724   40.9726  -38.4057 C   0  0  0  0  0  0  0  0  0  0  0  0
   -2.7363   40.0598  -37.6560 O   0  0  0  0  0  0  0  0  0  0  0  0
   -4.0994   41.9355  -37.8858 N   0  0  0  0  0  0  0  0  0  0  0  0
   -3.9589   42.9298  -38.1792 H   0  0  0  0  0  0  0  0  0  0  0  0
   -5.4119   41.5992  -37.3098 C   0  0  0  0  0  0  0  0  0  0  0  0
   -5.2889   41.5344  -35.8058 C   0  0  0  0  0  0  0  0  0  0  0  0
   -5.8981   42.3679  -35.0759 O   0  0  0  0  0  0  0  0  0  0  0  0
   -4.4633   40.5254  -35.2077 N   0  0  0  0  0  0  0  0  0  0  0  0
   -4.1482   39.7298  -35.8088 H   0  0  0  0  0  0  0  0  0  0  0  0
   -3.7491   40.7597  -33.9475 C   0  0  0  0  0  0  0  0  0  0  0  0
   -3.8315   39.5297  -33.0760 C   0  0  0  0  0  0  0  0  0  0  0  0
   -2.7916   39.1011  -32.5093 O   0  0  0  0  0  0  0  0  0  0  0  0
   -5.0987   38.8891  -32.8393 N   0  0  0  0  0  0  0  0  0  0  0  0
   -5.9456   39.3281  -33.2726 H   0  0  0  0  0  0  0  0  0  0  0  0
   -5.2667   37.8537  -31.8058 C   0  0  0  0  0  0  0  0  0  0  0  0
   -6.2250   36.7656  -32.2464 C   0  0  0  0  0  0  0  0  0  0  0  0
   -7.3924   37.0787  -32.6065 O   0  0  0  0  0  0  0  0  0  0  0  0
   -5.8957   35.3677  -32.1336 N   0  0  0  0  0  0  0  0  0  0  0  0
   -6.6707   34.7386  -31.8154 H   0  0  0  0  0  0  0  0  0  0  0  0
   -4.7201   34.7031  -32.7254 C   0  0  0  0  0  0  0  0  0  0  0  0
   -3.8481   34.0674  -31.6661 C   0  0  0  0  0  0  0  0  0  0  0  0
   -3.3544   34.7738  -30.7525 O   0  0  0  0  0  0  0  0  0  0  0  0
   -3.4625   32.6887  -31.7514 N   0  0  0  0  0  0  0  0  0  0  0  0
   -4.1914   31.6245  -31.0835 C   0  0  0  0  0  0  0  0  0  0  0  0
   -3.2395   30.4381  -31.0431 C   0  0  0  0  0  0  0  0  0  0  0  0
   -2.1747   30.7307  -32.0981 C   0  0  0  0  0  0  0  0  0  0  0  0
   -2.1748   32.2502  -32.2740 C   0  0  0  0  0  0  0  0  0  0  0  0
   -1.0398   32.8846  -31.5178 C   0  0  0  0  0  0  0  0  0  0  0  0
   -0.1180   33.6705  -32.1946 O   0  0  0  0  0  0  0  0  0  0  0  0
   -0.9068   32.6787  -30.2816 O   0  0  0  0  0  0  0  0  0  0  0  0
    0.6617   34.0943  -31.7068 H   0  0  0  0  0  0  0  0  0  0  0  0
   -5.1375   33.7161  -33.8346 C   0  0  0  0  0  0  0  0  0  0  0  0
   -5.4988   34.5662  -35.4085 S   0  0  0  0  0  0  0  0  0  0  0  0
   -4.2325   35.1564  -35.5331 H   0  0  0  0  0  0  0  0  0  0  0  0
   -5.7387   38.5045  -30.4876 C   0  0  0  0  0  0  0  0  0  0  0  0
   -5.2415   37.7711  -29.2684 C   0  0  0  0  0  0  0  0  0  0  0  0
   -6.0096   37.2818  -28.2366 C   0  0  0  0  0  0  0  0  0  0  0  0
   -5.2047   36.7223  -27.3126 N   0  0  0  0  0  0  0  0  0  0  0  0
   -3.9591   36.8971  -27.8038 C   0  0  0  0  0  0  0  0  0  0  0  0
   -3.9479   37.5306  -28.9907 N   0  0  0  0  0  0  0  0  0  0  0  0
   -3.1117   37.8153  -29.5476 H   0  0  0  0  0  0  0  0  0  0  0  0
   -2.2715   41.1035  -34.2322 C   0  0  0  0  0  0  0  0  0  0  0  0
   -1.8507   42.4456  -33.6094 C   0  0  0  0  0  0  0  0  0  0  0  0
   -0.6724   42.2737  -32.6911 C   0  0  0  0  0  0  0  0  0  0  0  0
    0.3222   43.0401  -32.7964 O   0  0  0  0  0  0  0  0  0  0  0  0
   -0.6679   41.2399  -31.7045 N   0  0  0  0  0  0  0  0  0  0  0  0
    0.1317   41.1495  -31.0387 H   0  0  0  0  0  0  0  0  0  0  0  0
   -1.4514   40.5539  -31.6378 H   0  0  0  0  0  0  0  0  0  0  0  0
   -6.0362   40.3143  -37.9112 C   0  0  0  0  0  0  0  0  0  0  0  0
   -7.0626   40.6193  -39.0158 C   0  0  0  0  0  0  0  0  0  0  0  0
   -6.8459   41.9935  -39.6748 C   0  0  0  0  0  0  0  0  0  0  0  0
   -7.1588   42.0476  -41.1849 C   0  0  0  0  0  0  0  0  0  0  0  0
   -7.1433   43.4133  -41.7147 N   0  0  0  0  0  0  0  0  0  0  0  0
   -6.1541   43.7585  -41.7320 H   0  0  0  0  0  0  0  0  0  0  0  0
   -7.6878   44.0330  -41.0802 H   0  0  0  0  0  0  0  0  0  0  0  0
   -3.4393   39.0475  -41.2347 C   0  0  0  0  0  0  0  0  0  0  0  0
   -2.3325   38.8362  -41.7983 O   0  0  0  0  0  0  0  0  0  0  0  0
   -3.7363   40.3425  -40.7061 N   0  0  0  0  0  0  0  0  0  0  0  0
   -4.7133   40.7090  -40.7876 H   0  0  0  0  0  0  0  0  0  0  0  0
   -4.3565   37.9010  -40.9244 C   0  0  0  0  0  0  0  0  0  0  0  0
   -5.9284   38.3685  -42.8749 C   0  0  0  0  0  0  0  0  0  0  0  0
   -6.7655   39.2379  -43.2556 O   0  0  0  0  0  0  0  0  0  0  0  0
   -5.6805   38.2174  -41.4667 N   0  0  0  0  0  0  0  0  0  0  0  0
   -6.3741   38.6599  -40.8258 H   0  0  0  0  0  0  0  0  0  0  0  0
   -5.2843   37.4423  -43.8848 C   0  0  0  0  0  0  0  0  0  0  0  0
   -3.1023   37.7030  -45.1457 C   0  0  0  0  0  0  0  0  0  0  0  0
   -2.5032   36.9466  -44.3321 O   0  0  0  0  0  0  0  0  0  0  0  0
   -4.4308   38.1599  -44.8430 N   0  0  0  0  0  0  0  0  0  0  0  0
   -4.7888   38.9922  -45.3593 H   0  0  0  0  0  0  0  0  0  0  0  0
   -2.4490   38.1164  -46.4431 C   0  0  0  0  0  0  0  0  0  0  0  0
   -1.7686   39.4725  -46.2604 C   0  0  0  0  0  0  0  0  0  0  0  0
   -3.0544   37.8388  -48.9094 C   0  0  0  0  0  0  0  0  0  0  0  0
   -1.8498   37.6249  -49.2143 O   0  0  0  0  0  0  0  0  0  0  0  0
   -3.4106   38.1769  -47.5577 N   0  0  0  0  0  0  0  0  0  0  0  0
   -4.4067   38.4297  -47.3855 H   0  0  0  0  0  0  0  0  0  0  0  0
   -4.1183   37.7386  -49.9747 C   0  0  0  0  0  0  0  0  0  0  0  0
   -5.8954   39.4912  -50.4290 C   0  0  0  0  0  0  0  0  0  0  0  0
   -7.0523   39.2743  -50.8859 O   0  0  0  0  0  0  0  0  0  0  0  0
   -5.2978   38.5114  -49.5719 N   0  0  0  0  0  0  0  0  0  0  0  0
   -5.9369   38.0679  -48.8816 H   0  0  0  0  0  0  0  0  0  0  0  0
   -5.2622   40.8496  -50.6812 C   0  0  0  0  0  0  0  0  0  0  0  0
   -4.5863   40.9155  -53.1010 C   0  0  0  0  0  0  0  0  0  0  0  0
   -5.2839   41.8949  -53.4840 O   0  0  0  0  0  0  0  0  0  0  0  0
   -4.2302   40.8015  -51.7192 N   0  0  0  0  0  0  0  0  0  0  0  0
   -3.2211   40.7271  -51.4692 H   0  0  0  0  0  0  0  0  0  0  0  0
   -2.8416   39.3541  -53.8063 N   0  0  0  0  0  0  0  0  0  0  0  0
   -4.2085   39.8203  -54.0758 C   0  0  0  0  0  0  0  0  0  0  0  0
   -2.5619   38.6955  -54.5707 H   0  0  0  0  0  0  0  0  0  0  0  0
   -2.1916   40.1687  -53.8825 H   0  0  0  0  0  0  0  0  0  0  0  0
   -5.2195   38.6527  -54.0446 C   0  0  0  0  0  0  0  0  0  0  0  0
   -6.5003   39.1692  -53.7655 O   0  0  0  0  0  0  0  0  0  0  0  0
   -5.2632   37.8745  -55.3673 C   0  0  0  0  0  0  0  0  0  0  0  0
   -7.0682   38.4013  -53.5005 H   0  0  0  0  0  0  0  0  0  0  0  0
   -4.7085   41.4636  -49.3836 C   0  0  0  0  0  0  0  0  0  0  0  0
   -5.7887   42.0558  -48.4609 C   0  0  0  0  0  0  0  0  0  0  0  0
   -6.2179   41.0870  -47.3879 C   0  0  0  0  0  0  0  0  0  0  0  0
   -5.4391   40.1921  -46.9671 O   0  0  0  0  0  0  0  0  0  0  0  0
   -7.5243   41.1929  -46.8252 N   0  0  0  0  0  0  0  0  0  0  0  0
   -7.8264   40.5416  -46.0700 H   0  0  0  0  0  0  0  0  0  0  0  0
   -8.1754   41.9544  -47.1280 H   0  0  0  0  0  0  0  0  0  0  0  0
   -4.5100   36.2882  -50.3883 C   0  0  0  0  0  0  0  0  0  0  0  0
   -4.1022   35.8061  -51.7962 C   0  0  0  0  0  0  0  0  0  0  0  0
   -2.6272   35.5754  -52.0327 C   0  0  0  0  0  0  0  0  0  0  0  0
   -2.2006   34.3934  -52.0260 O   0  0  0  0  0  0  0  0  0  0  0  0
   -1.6895   36.6411  -52.2178 N   0  0  0  0  0  0  0  0  0  0  0  0
   -1.9332   37.6401  -52.0572 H   0  0  0  0  0  0  0  0  0  0  0  0
   -0.6840   36.4193  -52.4100 H   0  0  0  0  0  0  0  0  0  0  0  0
   -6.3841   36.6511  -44.6231 C   0  0  0  0  0  0  0  0  0  0  0  0
   -7.3647   36.1972  -43.7240 O   0  0  0  0  0  0  0  0  0  0  0  0
   -8.0319   36.9317  -43.6399 H   0  0  0  0  0  0  0  0  0  0  0  0
   -4.4346   37.6200  -39.4124 C   0  0  0  0  0  0  0  0  0  0  0  0
   -5.4480   36.5481  -39.1264 C   0  0  0  0  0  0  0  0  0  0  0  0
   -5.2806   35.1921  -39.3389 C   0  0  0  0  0  0  0  0  0  0  0  0
   -6.4264   34.5529  -39.0248 N   0  0  0  0  0  0  0  0  0  0  0  0
   -7.2627   35.5396  -38.6267 C   0  0  0  0  0  0  0  0  0  0  0  0
   -6.6912   36.7609  -38.6700 N   0  0  0  0  0  0  0  0  0  0  0  0
   -7.1413   37.6716  -38.4347 H   0  0  0  0  0  0  0  0  0  0  0  0
 95 96  1  0  0  0
 96 91  1  0  0  0
 91 92  2  0  0  0
 91 93  1  0  0  0
 93 90  1  0  0  0
 90103  1  0  0  0
103104  1  0  0  0
104105  1  0  0  0
105106  2  0  0  0
105107  1  0  0  0
 90 86  1  0  0  0
 86 87  2  0  0  0
 86 88  1  0  0  0
 88 85  1  0  0  0
 85110  1  0  0  0
110111  1  0  0  0
111112  1  0  0  0
112113  2  0  0  0
112114  1  0  0  0
 85 81  1  0  0  0
 81 82  2  0  0  0
 81 83  1  0  0  0
 83 79  1  0  0  0
 79 80  1  0  0  0
 79 75  1  0  0  0
 75 76  2  0  0  0
 75 77  1  0  0  0
 77 74  1  0  0  0
 74117  1  0  0  0
117118  1  0  0  0
 74 70  1  0  0  0
 70 71  2  0  0  0
 70 72  1  0  0  0
 72 69  1  0  0  0
 69120  1  0  0  0
120121  1  0  0  0
121122  2  0  0  0
122123  1  0  0  0
123124  2  0  0  0
124125  1  0  0  0
 69 65  1  0  0  0
 65 66  2  0  0  0
 65 67  1  0  0  0
 67  1  1  0  0  0
  1  2  1  0  0  0
  2  3  2  0  0  0
  3  4  1  0  0  0
  4  5  2  0  0  0
  5  6  1  0  0  0
  5  7  1  0  0  0
  7  8  2  0  0  0
  1 10  1  0  0  0
 10 11  2  0  0  0
 10 12  1  0  0  0
 12 14  1  0  0  0
 14 58  1  0  0  0
 58 59  1  0  0  0
 59 60  1  0  0  0
 60 61  1  0  0  0
 61 62  1  0  0  0
 14 15  1  0  0  0
 15 16  2  0  0  0
 15 17  1  0  0  0
 17 19  1  0  0  0
 19 51  1  0  0  0
 51 52  1  0  0  0
 52 53  1  0  0  0
 53 54  2  0  0  0
 53 55  1  0  0  0
 19 20  1  0  0  0
 20 21  2  0  0  0
 20 22  1  0  0  0
 22 24  1  0  0  0
 24 44  1  0  0  0
 44 45  1  0  0  0
 45 46  2  0  0  0
 46 47  1  0  0  0
 47 48  2  0  0  0
 48 49  1  0  0  0
 24 25  1  0  0  0
 25 26  2  0  0  0
 25 27  1  0  0  0
 27 29  1  0  0  0
 29 41  1  0  0  0
 41 42  1  0  0  0
 29 30  1  0  0  0
 30 31  2  0  0  0
 30 32  1  0  0  0
 32 33  1  0  0  0
 33 34  1  0  0  0
 34 35  1  0  0  0
 35 36  1  0  0  0
 36 37  1  0  0  0
 37 38  1  0  0  0
 37 39  2  0  0  0
 96 99  1  0  0  0
 99100  1  0  0  0
 99101  1  0  0  0
125121  1  0  0  0
  8  2  1  0  0  0
 49 45  1  0  0  0
 36 32  1  0  0  0
 95 97  1  0  0  0
 95 98  1  0  0  0
 93 94  1  0  0  0
107108  1  0  0  0
107109  1  0  0  0
 88 89  1  0  0  0
114115  1  0  0  0
114116  1  0  0  0
 83 84  1  0  0  0
 77 78  1  0  0  0
118119  1  0  0  0
 72 73  1  0  0  0
125126  1  0  0  0
 67 68  1  0  0  0
  6  9  1  0  0  0
 12 13  1  0  0  0
 62 63  1  0  0  0
 62 64  1  0  0  0
 17 18  1  0  0  0
 55 56  1  0  0  0
 55 57  1  0  0  0
 22 23  1  0  0  0
 49 50  1  0  0  0
 27 28  1  0  0  0
 42 43  1  0  0  0
 38 40  1  0  0  0
100102  1  0  0  0
M  END
> <minimizedAffinity>
-6.65178

$$$$



126129  0  0  0  0  0  0  0  0999 V2000
   35.2298   44.1714  -33.0508 C   0  0  0  0  0  0  0  0  0  0  0  0
   34.6010   45.2161  -32.1581 C   0  0  0  0  0  0  0  0  0  0  0  0
   35.3958   46.1283  -31.4407 C   0  0  0  0  0  0  0  0  0  0  0  0
   34.8010   47.1204  -30.6577 C   0  0  0  0  0  0  0  0  0  0  0  0
   33.4060   47.2034  -30.5637 C   0  0  0  0  0  0  0  0  0  0  0  0
   32.8218   48.1991  -29.7818 O   0  0  0  0  0  0  0  0  0  0  0  0
   32.6078   46.2892  -31.2615 C   0  0  0  0  0  0  0  0  0  0  0  0
   33.2034   45.3080  -32.0610 C   0  0  0  0  0  0  0  0  0  0  0  0
   31.8168   48.2513  -29.6630 H   0  0  0  0  0  0  0  0  0  0  0  0
   35.6193   42.9538  -32.2540 C   0  0  0  0  0  0  0  0  0  0  0  0
   36.7217   42.3811  -32.4593 O   0  0  0  0  0  0  0  0  0  0  0  0
   34.7101   42.4162  -31.2839 N   0  0  0  0  0  0  0  0  0  0  0  0
   34.2145   43.1046  -30.6715 H   0  0  0  0  0  0  0  0  0  0  0  0
   34.1452   41.0578  -31.3371 C   0  0  0  0  0  0  0  0  0  0  0  0
   32.8582   41.0269  -30.5472 C   0  0  0  0  0  0  0  0  0  0  0  0
   32.5018   39.9752  -29.9426 O   0  0  0  0  0  0  0  0  0  0  0  0
   32.0323   42.1985  -30.4971 N   0  0  0  0  0  0  0  0  0  0  0  0
   32.4451   43.1037  -30.8191 H   0  0  0  0  0  0  0  0  0  0  0  0
   30.5716   42.1090  -30.3892 C   0  0  0  0  0  0  0  0  0  0  0  0
   30.0910   42.9537  -29.2338 C   0  0  0  0  0  0  0  0  0  0  0  0
   30.2730   44.1997  -29.2597 O   0  0  0  0  0  0  0  0  0  0  0  0
   29.3716   42.3518  -28.1420 N   0  0  0  0  0  0  0  0  0  0  0  0
   29.1801   41.3235  -28.2037 H   0  0  0  0  0  0  0  0  0  0  0  0
   28.6694   43.1611  -27.1320 C   0  0  0  0  0  0  0  0  0  0  0  0
   28.8443   42.5988  -25.7357 C   0  0  0  0  0  0  0  0  0  0  0  0
   28.9128   41.3495  -25.5765 O   0  0  0  0  0  0  0  0  0  0  0  0
   28.7929   43.4358  -24.5644 N   0  0  0  0  0  0  0  0  0  0  0  0
   28.2846   43.0382  -23.7390 H   0  0  0  0  0  0  0  0  0  0  0  0
   29.6437   44.6106  -24.2999 C   0  0  0  0  0  0  0  0  0  0  0  0
   29.1487   45.3994  -23.1084 C   0  0  0  0  0  0  0  0  0  0  0  0
   29.1075   44.8629  -21.9736 O   0  0  0  0  0  0  0  0  0  0  0  0
   28.5999   46.7150  -23.2655 N   0  0  0  0  0  0  0  0  0  0  0  0
   29.3918   47.9225  -23.1078 C   0  0  0  0  0  0  0  0  0  0  0  0
   28.3879   49.0477  -22.9041 C   0  0  0  0  0  0  0  0  0  0  0  0
   27.0544   48.5045  -23.4132 C   0  0  0  0  0  0  0  0  0  0  0  0
   27.1685   46.9817  -23.3248 C   0  0  0  0  0  0  0  0  0  0  0  0
   26.4690   46.4546  -22.1020 C   0  0  0  0  0  0  0  0  0  0  0  0
   26.9544   46.7737  -20.8420 O   0  0  0  0  0  0  0  0  0  0  0  0
   25.4658   45.7007  -22.2198 O   0  0  0  0  0  0  0  0  0  0  0  0
   26.5070   46.4169  -20.0064 H   0  0  0  0  0  0  0  0  0  0  0  0
   31.1281   44.2087  -24.1822 C   0  0  0  0  0  0  0  0  0  0  0  0
   32.1507   45.5553  -23.4956 S   0  0  0  0  0  0  0  0  0  0  0  0
   31.4311   45.6691  -22.2970 H   0  0  0  0  0  0  0  0  0  0  0  0
   27.1738   43.2711  -27.4995 C   0  0  0  0  0  0  0  0  0  0  0  0
   26.8480   44.5500  -28.2273 C   0  0  0  0  0  0  0  0  0  0  0  0
   26.1028   45.6010  -27.7437 C   0  0  0  0  0  0  0  0  0  0  0  0
   25.9999   46.5464  -28.6977 N   0  0  0  0  0  0  0  0  0  0  0  0
   26.6798   46.0378  -29.7477 C   0  0  0  0  0  0  0  0  0  0  0  0
   27.2073   44.8265  -29.4933 N   0  0  0  0  0  0  0  0  0  0  0  0
   27.7374   44.2163  -30.1544 H   0  0  0  0  0  0  0  0  0  0  0  0
   29.9133   42.5890  -31.7002 C   0  0  0  0  0  0  0  0  0  0  0  0
   28.3893   42.3801  -31.7022 C   0  0  0  0  0  0  0  0  0  0  0  0
   27.7508   43.0424  -32.8917 C   0  0  0  0  0  0  0  0  0  0  0  0
   28.4134   43.2024  -33.9514 O   0  0  0  0  0  0  0  0  0  0  0  0
   26.3991   43.5013  -32.8261 N   0  0  0  0  0  0  0  0  0  0  0  0
   25.9431   43.9212  -33.6667 H   0  0  0  0  0  0  0  0  0  0  0  0
   25.8494   43.4369  -31.9415 H   0  0  0  0  0  0  0  0  0  0  0  0
   35.1432   39.9591  -30.8906 C   0  0  0  0  0  0  0  0  0  0  0  0
   35.5914   39.0612  -32.0566 C   0  0  0  0  0  0  0  0  0  0  0  0
   36.8052   38.1817  -31.7058 C   0  0  0  0  0  0  0  0  0  0  0  0
   37.2785   37.2447  -32.8369 C   0  0  0  0  0  0  0  0  0  0  0  0
   36.1788   36.4844  -33.4356 N   0  0  0  0  0  0  0  0  0  0  0  0
   35.5797   37.1381  -33.9938 H   0  0  0  0  0  0  0  0  0  0  0  0
   35.5910   36.0787  -32.6786 H   0  0  0  0  0  0  0  0  0  0  0  0
   34.8185   43.6553  -35.4739 C   0  0  0  0  0  0  0  0  0  0  0  0
   35.5725   44.5320  -35.9742 O   0  0  0  0  0  0  0  0  0  0  0  0
   34.3192   43.8169  -34.1439 N   0  0  0  0  0  0  0  0  0  0  0  0
   33.3415   43.5097  -33.9310 H   0  0  0  0  0  0  0  0  0  0  0  0
   34.6153   42.3464  -36.1794 C   0  0  0  0  0  0  0  0  0  0  0  0
   33.7285   42.9309  -38.4959 C   0  0  0  0  0  0  0  0  0  0  0  0
   32.8676   43.6812  -39.0410 O   0  0  0  0  0  0  0  0  0  0  0  0
   33.5184   42.5109  -37.1369 N   0  0  0  0  0  0  0  0  0  0  0  0
   32.5575   42.6470  -36.7551 H   0  0  0  0  0  0  0  0  0  0  0  0
   34.8994   42.4094  -39.3020 C   0  0  0  0  0  0  0  0  0  0  0  0
   36.0686   44.3620  -40.4153 C   0  0  0  0  0  0  0  0  0  0  0  0
   36.3025   44.9017  -39.2987 O   0  0  0  0  0  0  0  0  0  0  0  0
   35.1801   43.2346  -40.4860 N   0  0  0  0  0  0  0  0  0  0  0  0
   34.7751   42.9916  -41.4157 H   0  0  0  0  0  0  0  0  0  0  0  0
   36.7273   44.8725  -41.6749 C   0  0  0  0  0  0  0  0  0  0  0  0
   38.2103   45.1256  -41.4064 C   0  0  0  0  0  0  0  0  0  0  0  0
   34.7409   46.1182  -42.6889 C   0  0  0  0  0  0  0  0  0  0  0  0
   34.1107   45.0396  -42.8604 O   0  0  0  0  0  0  0  0  0  0  0  0
   36.0867   46.0983  -42.1823 N   0  0  0  0  0  0  0  0  0  0  0  0
   36.5869   47.0118  -42.1467 H   0  0  0  0  0  0  0  0  0  0  0  0
   34.0718   47.4291  -43.0213 C   0  0  0  0  0  0  0  0  0  0  0  0
   31.6732   48.1859  -43.3530 C   0  0  0  0  0  0  0  0  0  0  0  0
   31.1880   48.6724  -44.4125 O   0  0  0  0  0  0  0  0  0  0  0  0
   32.6931   47.1856  -43.4579 N   0  0  0  0  0  0  0  0  0  0  0  0
   32.5559   46.4804  -44.2099 H   0  0  0  0  0  0  0  0  0  0  0  0
   31.0394   48.5689  -42.0260 C   0  0  0  0  0  0  0  0  0  0  0  0
   29.7223   46.8895  -40.6986 C   0  0  0  0  0  0  0  0  0  0  0  0
   30.0550   47.2405  -39.5330 O   0  0  0  0  0  0  0  0  0  0  0  0
   29.7967   47.8379  -41.7682 N   0  0  0  0  0  0  0  0  0  0  0  0
   28.9379   48.0258  -42.3283 H   0  0  0  0  0  0  0  0  0  0  0  0
   28.0903   45.4075  -41.7568 N   0  0  0  0  0  0  0  0  0  0  0  0
   29.3380   45.4528  -40.9825 C   0  0  0  0  0  0  0  0  0  0  0  0
   27.7816   44.4093  -41.8252 H   0  0  0  0  0  0  0  0  0  0  0  0
   27.3444   45.8980  -41.2139 H   0  0  0  0  0  0  0  0  0  0  0  0
   30.4738   44.6872  -41.6970 C   0  0  0  0  0  0  0  0  0  0  0  0
   31.7104   45.2223  -41.2852 O   0  0  0  0  0  0  0  0  0  0  0  0
   30.4482   43.1812  -41.3998 C   0  0  0  0  0  0  0  0  0  0  0  0
   32.3910   44.9028  -41.9309 H   0  0  0  0  0  0  0  0  0  0  0  0
   30.8147   50.0877  -41.9256 C   0  0  0  0  0  0  0  0  0  0  0  0
   31.2788   50.7022  -40.5929 C   0  0  0  0  0  0  0  0  0  0  0  0
   32.6818   50.2859  -40.2293 C   0  0  0  0  0  0  0  0  0  0  0  0
   32.9129   49.6001  -39.1994 O   0  0  0  0  0  0  0  0  0  0  0  0
   33.7686   50.6608  -41.0735 N   0  0  0  0  0  0  0  0  0  0  0  0
   34.7405   50.3636  -40.8434 H   0  0  0  0  0  0  0  0  0  0  0  0
   33.5979   51.1949  -41.9574 H   0  0  0  0  0  0  0  0  0  0  0  0
   34.8357   48.3248  -44.0424 C   0  0  0  0  0  0  0  0  0  0  0  0
   35.2283   47.6984  -45.3968 C   0  0  0  0  0  0  0  0  0  0  0  0
   34.3141   47.9845  -46.5662 C   0  0  0  0  0  0  0  0  0  0  0  0
   34.4511   47.2996  -47.6108 O   0  0  0  0  0  0  0  0  0  0  0  0
   33.3334   49.0273  -46.5542 N   0  0  0  0  0  0  0  0  0  0  0  0
   33.2843   49.7458  -45.8030 H   0  0  0  0  0  0  0  0  0  0  0  0
   32.7058   49.1581  -47.3827 H   0  0  0  0  0  0  0  0  0  0  0  0
   34.6241   40.9475  -39.7113 C   0  0  0  0  0  0  0  0  0  0  0  0
   33.3606   40.5294  -39.2587 O   0  0  0  0  0  0  0  0  0  0  0  0
   32.7082   40.7880  -39.9651 H   0  0  0  0  0  0  0  0  0  0  0  0
   34.3173   41.2018  -35.1934 C   0  0  0  0  0  0  0  0  0  0  0  0
   34.6649   39.8742  -35.8051 C   0  0  0  0  0  0  0  0  0  0  0  0
   35.8946   39.2452  -35.7405 C   0  0  0  0  0  0  0  0  0  0  0  0
   35.8438   38.1051  -36.4602 N   0  0  0  0  0  0  0  0  0  0  0  0
   34.5803   38.0696  -36.9436 C   0  0  0  0  0  0  0  0  0  0  0  0
   33.8396   39.1277  -36.5539 N   0  0  0  0  0  0  0  0  0  0  0  0
   32.8512   39.3310  -36.8167 H   0  0  0  0  0  0  0  0  0  0  0  0
 95 96  1  0  0  0
 96 91  1  0  0  0
 91 92  2  0  0  0
 91 93  1  0  0  0
 93 90  1  0  0  0
 90103  1  0  0  0
103104  1  0  0  0
104105  1  0  0  0
105106  2  0  0  0
105107  1  0  0  0
 90 86  1  0  0  0
 86 87  2  0  0  0
 86 88  1  0  0  0
 88 85  1  0  0  0
 85110  1  0  0  0
110111  1  0  0  0
111112  1  0  0  0
112113  2  0  0  0
112114  1  0  0  0
 85 81  1  0  0  0
 81 82  2  0  0  0
 81 83  1  0  0  0
 83 79  1  0  0  0
 79 80  1  0  0  0
 79 75  1  0  0  0
 75 76  2  0  0  0
 75 77  1  0  0  0
 77 74  1  0  0  0
 74117  1  0  0  0
117118  1  0  0  0
 74 70  1  0  0  0
 70 71  2  0  0  0
 70 72  1  0  0  0
 72 69  1  0  0  0
 69120  1  0  0  0
120121  1  0  0  0
121122  2  0  0  0
122123  1  0  0  0
123124  2  0  0  0
124125  1  0  0  0
 69 65  1  0  0  0
 65 66  2  0  0  0
 65 67  1  0  0  0
 67  1  1  0  0  0
  1  2  1  0  0  0
  2  3  2  0  0  0
  3  4  1  0  0  0
  4  5  2  0  0  0
  5  6  1  0  0  0
  5  7  1  0  0  0
  7  8  2  0  0  0
  1 10  1  0  0  0
 10 11  2  0  0  0
 10 12  1  0  0  0
 12 14  1  0  0  0
 14 58  1  0  0  0
 58 59  1  0  0  0
 59 60  1  0  0  0
 60 61  1  0  0  0
 61 62  1  0  0  0
 14 15  1  0  0  0
 15 16  2  0  0  0
 15 17  1  0  0  0
 17 19  1  0  0  0
 19 51  1  0  0  0
 51 52  1  0  0  0
 52 53  1  0  0  0
 53 54  2  0  0  0
 53 55  1  0  0  0
 19 20  1  0  0  0
 20 21  2  0  0  0
 20 22  1  0  0  0
 22 24  1  0  0  0
 24 44  1  0  0  0
 44 45  1  0  0  0
 45 46  2  0  0  0
 46 47  1  0  0  0
 47 48  2  0  0  0
 48 49  1  0  0  0
 24 25  1  0  0  0
 25 26  2  0  0  0
 25 27  1  0  0  0
 27 29  1  0  0  0
 29 41  1  0  0  0
 41 42  1  0  0  0
 29 30  1  0  0  0
 30 31  2  0  0  0
 30 32  1  0  0  0
 32 33  1  0  0  0
 33 34  1  0  0  0
 34 35  1  0  0  0
 35 36  1  0  0  0
 36 37  1  0  0  0
 37 38  1  0  0  0
 37 39  2  0  0  0
 96 99  1  0  0  0
 99100  1  0  0  0
 99101  1  0  0  0
125121  1  0  0  0
  8  2  1  0  0  0
 49 45  1  0  0  0
 36 32  1  0  0  0
 95 97  1  0  0  0
 95 98  1  0  0  0
 93 94  1  0  0  0
107108  1  0  0  0
107109  1  0  0  0
 88 89  1  0  0  0
114115  1  0  0  0
114116  1  0  0  0
 83 84  1  0  0  0
 77 78  1  0  0  0
118119  1  0  0  0
 72 73  1  0  0  0
125126  1  0  0  0
 67 68  1  0  0  0
  6  9  1  0  0  0
 12 13  1  0  0  0
 62 63  1  0  0  0
 62 64  1  0  0  0
 17 18  1  0  0  0
 55 56  1  0  0  0
 55 57  1  0  0  0
 22 23  1  0  0  0
 49 50  1  0  0  0
 27 28  1  0  0  0
 42 43  1  0  0  0
 38 40  1  0  0  0
100102  1  0  0  0
M  END
> <minimizedAffinity>
-6.64139

$$$$



126129  0  0  0  0  0  0  0  0999 V2000
   36.5212   39.8487  -31.5438 C   0  0  0  0  0  0  0  0  0  0  0  0
   37.2291   40.7891  -30.5961 C   0  0  0  0  0  0  0  0  0  0  0  0
   36.9146   42.1597  -30.5674 C   0  0  0  0  0  0  0  0  0  0  0  0
   37.5409   43.0096  -29.6527 C   0  0  0  0  0  0  0  0  0  0  0  0
   38.5038   42.5076  -28.7682 C   0  0  0  0  0  0  0  0  0  0  0  0
   39.1214   43.3634  -27.8569 O   0  0  0  0  0  0  0  0  0  0  0  0
   38.8347   41.1476  -28.8012 C   0  0  0  0  0  0  0  0  0  0  0  0
   38.1932   40.2933  -29.7040 C   0  0  0  0  0  0  0  0  0  0  0  0
   39.8524   43.0322  -27.2381 H   0  0  0  0  0  0  0  0  0  0  0  0
   35.4805   40.5846  -32.3467 C   0  0  0  0  0  0  0  0  0  0  0  0
   35.7918   41.1599  -33.4226 O   0  0  0  0  0  0  0  0  0  0  0  0
   34.1336   40.6680  -31.8612 N   0  0  0  0  0  0  0  0  0  0  0  0
   33.7249   39.7947  -31.4554 H   0  0  0  0  0  0  0  0  0  0  0  0
   33.4413   41.9276  -31.5426 C   0  0  0  0  0  0  0  0  0  0  0  0
   32.2249   41.6231  -30.7006 C   0  0  0  0  0  0  0  0  0  0  0  0
   32.1007   40.4986  -30.1361 O   0  0  0  0  0  0  0  0  0  0  0  0
   31.2006   42.6166  -30.5545 N   0  0  0  0  0  0  0  0  0  0  0  0
   31.4219   43.5958  -30.8470 H   0  0  0  0  0  0  0  0  0  0  0  0
   29.7892   42.2511  -30.3885 C   0  0  0  0  0  0  0  0  0  0  0  0
   29.1130   43.2300  -29.4590 C   0  0  0  0  0  0  0  0  0  0  0  0
   29.6306   44.3623  -29.2688 O   0  0  0  0  0  0  0  0  0  0  0  0
   27.8530   42.9001  -28.8461 N   0  0  0  0  0  0  0  0  0  0  0  0
   27.4267   41.9760  -29.0952 H   0  0  0  0  0  0  0  0  0  0  0  0
   27.0406   43.9083  -28.1448 C   0  0  0  0  0  0  0  0  0  0  0  0
   26.4114   43.3500  -26.8843 C   0  0  0  0  0  0  0  0  0  0  0  0
   25.4764   42.5090  -26.9804 O   0  0  0  0  0  0  0  0  0  0  0  0
   26.7474   43.8529  -25.5769 N   0  0  0  0  0  0  0  0  0  0  0  0
   25.9484   43.9592  -24.9075 H   0  0  0  0  0  0  0  0  0  0  0  0
   28.0989   43.9093  -24.9903 C   0  0  0  0  0  0  0  0  0  0  0  0
   28.1029   44.6489  -23.6713 C   0  0  0  0  0  0  0  0  0  0  0  0
   27.0968   44.5998  -22.9211 O   0  0  0  0  0  0  0  0  0  0  0  0
   29.1861   45.5167  -23.3103 N   0  0  0  0  0  0  0  0  0  0  0  0
   30.3097   45.0786  -22.5006 C   0  0  0  0  0  0  0  0  0  0  0  0
   30.9631   46.3514  -21.9827 C   0  0  0  0  0  0  0  0  0  0  0  0
   30.4600   47.4700  -22.8927 C   0  0  0  0  0  0  0  0  0  0  0  0
   29.1408   46.9635  -23.4784 C   0  0  0  0  0  0  0  0  0  0  0  0
   27.9624   47.5554  -22.7549 C   0  0  0  0  0  0  0  0  0  0  0  0
   27.7266   47.2131  -21.4310 O   0  0  0  0  0  0  0  0  0  0  0  0
   27.1739   48.3336  -23.3558 O   0  0  0  0  0  0  0  0  0  0  0  0
   26.9305   47.5888  -20.9305 H   0  0  0  0  0  0  0  0  0  0  0  0
   28.7240   42.5025  -24.8945 C   0  0  0  0  0  0  0  0  0  0  0  0
   30.2501   42.3614  -25.8853 S   0  0  0  0  0  0  0  0  0  0  0  0
   30.9290   43.3993  -25.2301 H   0  0  0  0  0  0  0  0  0  0  0  0
   25.9629   44.4658  -29.0996 C   0  0  0  0  0  0  0  0  0  0  0  0
   26.1578   45.9292  -29.4028 C   0  0  0  0  0  0  0  0  0  0  0  0
   25.2471   46.9387  -29.1891 C   0  0  0  0  0  0  0  0  0  0  0  0
   25.7686   48.1035  -29.6199 N   0  0  0  0  0  0  0  0  0  0  0  0
   26.9861   47.7687  -30.0982 C   0  0  0  0  0  0  0  0  0  0  0  0
   27.2524   46.4552  -29.9803 N   0  0  0  0  0  0  0  0  0  0  0  0
   28.1046   45.9506  -30.3114 H   0  0  0  0  0  0  0  0  0  0  0  0
   29.0776   42.2502  -31.7582 C   0  0  0  0  0  0  0  0  0  0  0  0
   29.0040   43.6542  -32.3822 C   0  0  0  0  0  0  0  0  0  0  0  0
   27.6038   43.9814  -32.8222 C   0  0  0  0  0  0  0  0  0  0  0  0
   26.7003   43.1069  -32.7418 O   0  0  0  0  0  0  0  0  0  0  0  0
   27.2916   45.2759  -33.3409 N   0  0  0  0  0  0  0  0  0  0  0  0
   26.3100   45.5158  -33.6049 H   0  0  0  0  0  0  0  0  0  0  0  0
   28.0338   45.9969  -33.4756 H   0  0  0  0  0  0  0  0  0  0  0  0
   33.1005   42.7755  -32.7946 C   0  0  0  0  0  0  0  0  0  0  0  0
   32.9527   44.2720  -32.4703 C   0  0  0  0  0  0  0  0  0  0  0  0
   34.2306   44.8862  -31.8708 C   0  0  0  0  0  0  0  0  0  0  0  0
   34.7638   46.1306  -32.6114 C   0  0  0  0  0  0  0  0  0  0  0  0
   33.7095   47.1025  -32.9110 N   0  0  0  0  0  0  0  0  0  0  0  0
   33.4011   47.5539  -32.0171 H   0  0  0  0  0  0  0  0  0  0  0  0
   32.8908   46.6051  -33.3178 H   0  0  0  0  0  0  0  0  0  0  0  0
   37.2268   37.8647  -32.9125 C   0  0  0  0  0  0  0  0  0  0  0  0
   36.8548   36.9589  -32.1197 O   0  0  0  0  0  0  0  0  0  0  0  0
   37.4887   39.1815  -32.4206 N   0  0  0  0  0  0  0  0  0  0  0  0
   38.2839   39.7246  -32.8308 H   0  0  0  0  0  0  0  0  0  0  0  0
   37.1898   37.6294  -34.3942 C   0  0  0  0  0  0  0  0  0  0  0  0
   35.5314   38.7003  -36.0057 C   0  0  0  0  0  0  0  0  0  0  0  0
   34.4943   39.4251  -35.9862 O   0  0  0  0  0  0  0  0  0  0  0  0
   35.8238   37.8807  -34.8611 N   0  0  0  0  0  0  0  0  0  0  0  0
   35.0457   37.7442  -34.1803 H   0  0  0  0  0  0  0  0  0  0  0  0
   36.3832   38.6284  -37.2554 C   0  0  0  0  0  0  0  0  0  0  0  0
   37.2492   40.0954  -39.1308 C   0  0  0  0  0  0  0  0  0  0  0  0
   38.3230   39.4355  -39.1960 O   0  0  0  0  0  0  0  0  0  0  0  0
   36.3464   39.8746  -38.0346 N   0  0  0  0  0  0  0  0  0  0  0  0
   35.6321   40.6082  -37.8369 H   0  0  0  0  0  0  0  0  0  0  0  0
   36.8908   41.0984  -40.2016 C   0  0  0  0  0  0  0  0  0  0  0  0
   38.0497   42.0766  -40.3904 C   0  0  0  0  0  0  0  0  0  0  0  0
   34.3481   41.2380  -39.9984 C   0  0  0  0  0  0  0  0  0  0  0  0
   34.2113   40.1005  -40.5251 O   0  0  0  0  0  0  0  0  0  0  0  0
   35.6529   41.8325  -39.8868 N   0  0  0  0  0  0  0  0  0  0  0  0
   35.6928   42.8091  -39.5254 H   0  0  0  0  0  0  0  0  0  0  0  0
   33.1316   41.9703  -39.4881 C   0  0  0  0  0  0  0  0  0  0  0  0
   32.5116   43.5260  -41.3936 C   0  0  0  0  0  0  0  0  0  0  0  0
   32.8573   43.3955  -42.6010 O   0  0  0  0  0  0  0  0  0  0  0  0
   32.2717   42.3484  -40.6142 N   0  0  0  0  0  0  0  0  0  0  0  0
   31.7736   41.5782  -41.1045 H   0  0  0  0  0  0  0  0  0  0  0  0
   32.2124   44.9228  -40.8749 C   0  0  0  0  0  0  0  0  0  0  0  0
   30.0120   45.9902  -41.4546 C   0  0  0  0  0  0  0  0  0  0  0  0
   30.0157   45.8067  -42.7031 O   0  0  0  0  0  0  0  0  0  0  0  0
   30.7861   45.1286  -40.6134 N   0  0  0  0  0  0  0  0  0  0  0  0
   30.3037   44.6210  -39.8414 H   0  0  0  0  0  0  0  0  0  0  0  0
   29.8916   47.5639  -39.5868 N   0  0  0  0  0  0  0  0  0  0  0  0
   29.2716   47.1688  -40.8587 C   0  0  0  0  0  0  0  0  0  0  0  0
   29.2856   48.2895  -39.1367 H   0  0  0  0  0  0  0  0  0  0  0  0
   29.8771   46.7426  -38.9409 H   0  0  0  0  0  0  0  0  0  0  0  0
   29.1989   48.3564  -41.8441 C   0  0  0  0  0  0  0  0  0  0  0  0
   28.2852   48.0402  -42.8689 O   0  0  0  0  0  0  0  0  0  0  0  0
   28.7656   49.6624  -41.1631 C   0  0  0  0  0  0  0  0  0  0  0  0
   28.4444   48.6847  -43.6047 H   0  0  0  0  0  0  0  0  0  0  0  0
   32.7595   46.0053  -41.8215 C   0  0  0  0  0  0  0  0  0  0  0  0
   34.0651   46.6598  -41.3356 C   0  0  0  0  0  0  0  0  0  0  0  0
   33.8878   48.1237  -41.0203 C   0  0  0  0  0  0  0  0  0  0  0  0
   34.8102   48.9535  -41.2328 O   0  0  0  0  0  0  0  0  0  0  0  0
   32.6480   48.5838  -40.4858 N   0  0  0  0  0  0  0  0  0  0  0  0
   32.5063   49.5957  -40.2812 H   0  0  0  0  0  0  0  0  0  0  0  0
   31.8514   47.9209  -40.3394 H   0  0  0  0  0  0  0  0  0  0  0  0
   33.4292   43.1945  -38.5711 C   0  0  0  0  0  0  0  0  0  0  0  0
   33.6046   42.9363  -37.0599 C   0  0  0  0  0  0  0  0  0  0  0  0
   34.9857   43.1641  -36.4893 C   0  0  0  0  0  0  0  0  0  0  0  0
   35.8941   42.3474  -36.7841 O   0  0  0  0  0  0  0  0  0  0  0  0
   35.2939   44.2382  -35.5947 N   0  0  0  0  0  0  0  0  0  0  0  0
   34.5624   44.8414  -35.1655 H   0  0  0  0  0  0  0  0  0  0  0  0
   36.2772   44.3651  -35.2564 H   0  0  0  0  0  0  0  0  0  0  0  0
   35.9217   37.4348  -38.1174 C   0  0  0  0  0  0  0  0  0  0  0  0
   34.6993   37.7170  -38.7515 O   0  0  0  0  0  0  0  0  0  0  0  0
   34.9244   38.1726  -39.6079 H   0  0  0  0  0  0  0  0  0  0  0  0
   37.6429   36.2044  -34.7617 C   0  0  0  0  0  0  0  0  0  0  0  0
   38.6460   36.2413  -35.8797 C   0  0  0  0  0  0  0  0  0  0  0  0
   39.6911   37.1378  -36.0064 C   0  0  0  0  0  0  0  0  0  0  0  0
   40.3354   36.9010  -37.1678 N   0  0  0  0  0  0  0  0  0  0  0  0
   39.6644   35.8625  -37.7180 C   0  0  0  0  0  0  0  0  0  0  0  0
   38.6388   35.4360  -36.9523 N   0  0  0  0  0  0  0  0  0  0  0  0
   37.9673   34.6700  -37.1752 H   0  0  0  0  0  0  0  0  0  0  0  0
 95 96  1  0  0  0
 96 91  1  0  0  0
 91 92  2  0  0  0
 91 93  1  0  0  0
 93 90  1  0  0  0
 90103  1  0  0  0
103104  1  0  0  0
104105  1  0  0  0
105106  2  0  0  0
105107  1  0  0  0
 90 86  1  0  0  0
 86 87  2  0  0  0
 86 88  1  0  0  0
 88 85  1  0  0  0
 85110  1  0  0  0
110111  1  0  0  0
111112  1  0  0  0
112113  2  0  0  0
112114  1  0  0  0
 85 81  1  0  0  0
 81 82  2  0  0  0
 81 83  1  0  0  0
 83 79  1  0  0  0
 79 80  1  0  0  0
 79 75  1  0  0  0
 75 76  2  0  0  0
 75 77  1  0  0  0
 77 74  1  0  0  0
 74117  1  0  0  0
117118  1  0  0  0
 74 70  1  0  0  0
 70 71  2  0  0  0
 70 72  1  0  0  0
 72 69  1  0  0  0
 69120  1  0  0  0
120121  1  0  0  0
121122  2  0  0  0
122123  1  0  0  0
123124  2  0  0  0
124125  1  0  0  0
 69 65  1  0  0  0
 65 66  2  0  0  0
 65 67  1  0  0  0
 67  1  1  0  0  0
  1  2  1  0  0  0
  2  3  2  0  0  0
  3  4  1  0  0  0
  4  5  2  0  0  0
  5  6  1  0  0  0
  5  7  1  0  0  0
  7  8  2  0  0  0
  1 10  1  0  0  0
 10 11  2  0  0  0
 10 12  1  0  0  0
 12 14  1  0  0  0
 14 58  1  0  0  0
 58 59  1  0  0  0
 59 60  1  0  0  0
 60 61  1  0  0  0
 61 62  1  0  0  0
 14 15  1  0  0  0
 15 16  2  0  0  0
 15 17  1  0  0  0
 17 19  1  0  0  0
 19 51  1  0  0  0
 51 52  1  0  0  0
 52 53  1  0  0  0
 53 54  2  0  0  0
 53 55  1  0  0  0
 19 20  1  0  0  0
 20 21  2  0  0  0
 20 22  1  0  0  0
 22 24  1  0  0  0
 24 44  1  0  0  0
 44 45  1  0  0  0
 45 46  2  0  0  0
 46 47  1  0  0  0
 47 48  2  0  0  0
 48 49  1  0  0  0
 24 25  1  0  0  0
 25 26  2  0  0  0
 25 27  1  0  0  0
 27 29  1  0  0  0
 29 41  1  0  0  0
 41 42  1  0  0  0
 29 30  1  0  0  0
 30 31  2  0  0  0
 30 32  1  0  0  0
 32 33  1  0  0  0
 33 34  1  0  0  0
 34 35  1  0  0  0
 35 36  1  0  0  0
 36 37  1  0  0  0
 37 38  1  0  0  0
 37 39  2  0  0  0
 96 99  1  0  0  0
 99100  1  0  0  0
 99101  1  0  0  0
125121  1  0  0  0
  8  2  1  0  0  0
 49 45  1  0  0  0
 36 32  1  0  0  0
 95 97  1  0  0  0
 95 98  1  0  0  0
 93 94  1  0  0  0
107108  1  0  0  0
107109  1  0  0  0
 88 89  1  0  0  0
114115  1  0  0  0
114116  1  0  0  0
 83 84  1  0  0  0
 77 78  1  0  0  0
118119  1  0  0  0
 72 73  1  0  0  0
125126  1  0  0  0
 67 68  1  0  0  0
  6  9  1  0  0  0
 12 13  1  0  0  0
 62 63  1  0  0  0
 62 64  1  0  0  0
 17 18  1  0  0  0
 55 56  1  0  0  0
 55 57  1  0  0  0
 22 23  1  0  0  0
 49 50  1  0  0  0
 27 28  1  0  0  0
 42 43  1  0  0  0
 38 40  1  0  0  0
100102  1  0  0  0
M  END
> <minimizedAffinity>
-6.60110

$$$$



126129  0  0  0  0  0  0  0  0999 V2000
   35.0111   43.9288  -33.7009 C   0  0  0  0  0  0  0  0  0  0  0  0
   34.4407   44.9236  -32.7167 C   0  0  0  0  0  0  0  0  0  0  0  0
   33.0553   45.1550  -32.6424 C   0  0  0  0  0  0  0  0  0  0  0  0
   32.5366   46.0405  -31.6948 C   0  0  0  0  0  0  0  0  0  0  0  0
   33.3942   46.7222  -30.8222 C   0  0  0  0  0  0  0  0  0  0  0  0
   32.8664   47.6020  -29.8779 O   0  0  0  0  0  0  0  0  0  0  0  0
   34.7758   46.5101  -30.9004 C   0  0  0  0  0  0  0  0  0  0  0  0
   35.2933   45.6086  -31.8364 C   0  0  0  0  0  0  0  0  0  0  0  0
   33.4697   48.1396  -29.2664 H   0  0  0  0  0  0  0  0  0  0  0  0
   35.5047   42.6969  -32.9882 C   0  0  0  0  0  0  0  0  0  0  0  0
   36.4457   42.0131  -33.4703 O   0  0  0  0  0  0  0  0  0  0  0  0
   34.8704   42.2743  -31.7734 N   0  0  0  0  0  0  0  0  0  0  0  0
   34.6357   43.0220  -31.0804 H   0  0  0  0  0  0  0  0  0  0  0  0
   34.1964   40.9776  -31.5950 C   0  0  0  0  0  0  0  0  0  0  0  0
   32.9266   41.1859  -30.8040 C   0  0  0  0  0  0  0  0  0  0  0  0
   32.5205   40.3006  -29.9978 O   0  0  0  0  0  0  0  0  0  0  0  0
   32.1736   42.3936  -30.9826 N   0  0  0  0  0  0  0  0  0  0  0  0
   32.6331   43.1886  -31.4830 H   0  0  0  0  0  0  0  0  0  0  0  0
   30.7128   42.4194  -30.8466 C   0  0  0  0  0  0  0  0  0  0  0  0
   30.3317   43.0799  -29.5436 C   0  0  0  0  0  0  0  0  0  0  0  0
   30.7210   44.2542  -29.3072 O   0  0  0  0  0  0  0  0  0  0  0  0
   29.4755   42.4009  -28.6065 N   0  0  0  0  0  0  0  0  0  0  0  0
   29.1172   41.4560  -28.8830 H   0  0  0  0  0  0  0  0  0  0  0  0
   28.8765   43.0954  -27.4545 C   0  0  0  0  0  0  0  0  0  0  0  0
   29.4414   42.5988  -26.1389 C   0  0  0  0  0  0  0  0  0  0  0  0
   30.3761   41.7520  -26.1479 O   0  0  0  0  0  0  0  0  0  0  0  0
   28.8518   42.9535  -24.8733 N   0  0  0  0  0  0  0  0  0  0  0  0
   28.7985   42.1866  -24.1616 H   0  0  0  0  0  0  0  0  0  0  0  0
   28.6340   44.3227  -24.3714 C   0  0  0  0  0  0  0  0  0  0  0  0
   27.1734   44.5824  -24.0786 C   0  0  0  0  0  0  0  0  0  0  0  0
   26.6760   45.7105  -24.3184 O   0  0  0  0  0  0  0  0  0  0  0  0
   26.3654   43.6048  -23.4091 N   0  0  0  0  0  0  0  0  0  0  0  0
   25.5397   42.6448  -24.1209 C   0  0  0  0  0  0  0  0  0  0  0  0
   24.5386   42.1272  -23.0985 C   0  0  0  0  0  0  0  0  0  0  0  0
   25.1304   42.4731  -21.7338 C   0  0  0  0  0  0  0  0  0  0  0  0
   26.0786   43.6477  -21.9810 C   0  0  0  0  0  0  0  0  0  0  0  0
   25.4379   44.9532  -21.5970 C   0  0  0  0  0  0  0  0  0  0  0  0
   26.2361   46.0419  -21.2763 O   0  0  0  0  0  0  0  0  0  0  0  0
   24.1828   45.0507  -21.5355 O   0  0  0  0  0  0  0  0  0  0  0  0
   25.8246   46.9253  -21.0007 H   0  0  0  0  0  0  0  0  0  0  0  0
   29.5532   44.6291  -23.1713 C   0  0  0  0  0  0  0  0  0  0  0  0
   30.0094   46.3943  -23.0903 S   0  0  0  0  0  0  0  0  0  0  0  0
   28.6913   46.8676  -23.0123 H   0  0  0  0  0  0  0  0  0  0  0  0
   27.3410   42.9371  -27.4909 C   0  0  0  0  0  0  0  0  0  0  0  0
   26.6450   44.1577  -28.0359 C   0  0  0  0  0  0  0  0  0  0  0  0
   26.2304   44.3536  -29.3335 C   0  0  0  0  0  0  0  0  0  0  0  0
   25.6836   45.5799  -29.4429 N   0  0  0  0  0  0  0  0  0  0  0  0
   25.7910   46.1060  -28.2040 C   0  0  0  0  0  0  0  0  0  0  0  0
   26.3702   45.2666  -27.3265 N   0  0  0  0  0  0  0  0  0  0  0  0
   26.5993   45.4574  -26.3257 H   0  0  0  0  0  0  0  0  0  0  0  0
   30.0842   43.1880  -32.0284 C   0  0  0  0  0  0  0  0  0  0  0  0
   28.6802   43.7237  -31.6997 C   0  0  0  0  0  0  0  0  0  0  0  0
   27.6901   43.3457  -32.7665 C   0  0  0  0  0  0  0  0  0  0  0  0
   27.2050   42.1830  -32.7887 O   0  0  0  0  0  0  0  0  0  0  0  0
   27.3017   44.2937  -33.7627 N   0  0  0  0  0  0  0  0  0  0  0  0
   26.5812   44.0438  -34.4764 H   0  0  0  0  0  0  0  0  0  0  0  0
   27.7349   45.2422  -33.8034 H   0  0  0  0  0  0  0  0  0  0  0  0
   35.1105   39.8896  -30.9761 C   0  0  0  0  0  0  0  0  0  0  0  0
   36.5939   40.2971  -30.9752 C   0  0  0  0  0  0  0  0  0  0  0  0
   37.1263   40.6253  -29.5686 C   0  0  0  0  0  0  0  0  0  0  0  0
   38.6429   40.9004  -29.4945 C   0  0  0  0  0  0  0  0  0  0  0  0
   39.1428   40.9325  -28.1179 N   0  0  0  0  0  0  0  0  0  0  0  0
   39.1258   39.9598  -27.7287 H   0  0  0  0  0  0  0  0  0  0  0  0
   38.5104   41.5209  -27.5375 H   0  0  0  0  0  0  0  0  0  0  0  0
   34.3934   43.4665  -36.0909 C   0  0  0  0  0  0  0  0  0  0  0  0
   35.0849   44.3699  -36.6324 O   0  0  0  0  0  0  0  0  0  0  0  0
   34.0124   43.5847  -34.7178 N   0  0  0  0  0  0  0  0  0  0  0  0
   33.0630   43.2536  -34.4272 H   0  0  0  0  0  0  0  0  0  0  0  0
   34.1499   42.1723  -36.8106 C   0  0  0  0  0  0  0  0  0  0  0  0
   33.3602   42.7533  -39.1627 C   0  0  0  0  0  0  0  0  0  0  0  0
   32.5725   43.5517  -39.7490 O   0  0  0  0  0  0  0  0  0  0  0  0
   33.0894   42.3928  -37.7974 N   0  0  0  0  0  0  0  0  0  0  0  0
   32.1346   42.6153  -37.4419 H   0  0  0  0  0  0  0  0  0  0  0  0
   34.5026   42.1175  -39.9263 C   0  0  0  0  0  0  0  0  0  0  0  0
   35.7215   43.7638  -41.4173 C   0  0  0  0  0  0  0  0  0  0  0  0
   36.1378   44.4121  -40.4176 O   0  0  0  0  0  0  0  0  0  0  0  0
   34.7230   42.7460  -41.2370 N   0  0  0  0  0  0  0  0  0  0  0  0
   34.1892   42.4336  -42.0766 H   0  0  0  0  0  0  0  0  0  0  0  0
   36.2751   44.0293  -42.7972 C   0  0  0  0  0  0  0  0  0  0  0  0
   37.7718   44.3211  -42.6971 C   0  0  0  0  0  0  0  0  0  0  0  0
   34.2164   45.0583  -43.9058 C   0  0  0  0  0  0  0  0  0  0  0  0
   33.6027   43.9576  -43.8619 O   0  0  0  0  0  0  0  0  0  0  0  0
   35.5845   45.1428  -43.4708 N   0  0  0  0  0  0  0  0  0  0  0  0
   36.0656   46.0560  -43.6141 H   0  0  0  0  0  0  0  0  0  0  0  0
   33.5037   46.2848  -44.4199 C   0  0  0  0  0  0  0  0  0  0  0  0
   31.0384   46.7903  -44.0996 C   0  0  0  0  0  0  0  0  0  0  0  0
   30.3059   47.4461  -44.8920 O   0  0  0  0  0  0  0  0  0  0  0  0
   32.0868   45.9788  -44.6418 N   0  0  0  0  0  0  0  0  0  0  0  0
   31.8490   45.4575  -45.5099 H   0  0  0  0  0  0  0  0  0  0  0  0
   30.6699   46.7694  -42.6254 C   0  0  0  0  0  0  0  0  0  0  0  0
   31.9083   47.3717  -40.5229 C   0  0  0  0  0  0  0  0  0  0  0  0
   30.9664   47.2640  -39.6900 O   0  0  0  0  0  0  0  0  0  0  0  0
   31.8434   46.6497  -41.7573 N   0  0  0  0  0  0  0  0  0  0  0  0
   32.6276   46.0078  -42.0010 H   0  0  0  0  0  0  0  0  0  0  0  0
   32.6401   49.3566  -39.2965 N   0  0  0  0  0  0  0  0  0  0  0  0
   33.0522   48.3287  -40.2618 C   0  0  0  0  0  0  0  0  0  0  0  0
   33.4003   50.0740  -39.2351 H   0  0  0  0  0  0  0  0  0  0  0  0
   31.8077   49.8583  -39.6803 H   0  0  0  0  0  0  0  0  0  0  0  0
   34.3222   47.5870  -39.7889 C   0  0  0  0  0  0  0  0  0  0  0  0
   34.0047   46.2297  -39.5835 O   0  0  0  0  0  0  0  0  0  0  0  0
   35.4760   47.6915  -40.7962 C   0  0  0  0  0  0  0  0  0  0  0  0
   34.7424   45.8399  -39.0487 H   0  0  0  0  0  0  0  0  0  0  0  0
   29.6427   45.6664  -42.3162 C   0  0  0  0  0  0  0  0  0  0  0  0
   28.2777   46.1973  -41.8432 C   0  0  0  0  0  0  0  0  0  0  0  0
   27.2941   46.3365  -42.9777 C   0  0  0  0  0  0  0  0  0  0  0  0
   26.3425   45.5249  -43.1198 O   0  0  0  0  0  0  0  0  0  0  0  0
   27.4314   47.4156  -43.9002 N   0  0  0  0  0  0  0  0  0  0  0  0
   26.7474   47.5338  -44.6775 H   0  0  0  0  0  0  0  0  0  0  0  0
   28.1889   48.1277  -43.7793 H   0  0  0  0  0  0  0  0  0  0  0  0
   34.1411   46.9444  -45.6796 C   0  0  0  0  0  0  0  0  0  0  0  0
   33.2884   47.9582  -46.4709 C   0  0  0  0  0  0  0  0  0  0  0  0
   33.2093   49.3601  -45.9112 C   0  0  0  0  0  0  0  0  0  0  0  0
   34.2820   49.9851  -45.7165 O   0  0  0  0  0  0  0  0  0  0  0  0
   31.9749   49.9890  -45.5509 N   0  0  0  0  0  0  0  0  0  0  0  0
   31.0709   49.4749  -45.5128 H   0  0  0  0  0  0  0  0  0  0  0  0
   31.9793   50.9751  -45.1976 H   0  0  0  0  0  0  0  0  0  0  0  0
   34.2290   40.6076  -40.0868 C   0  0  0  0  0  0  0  0  0  0  0  0
   32.9492   40.2762  -39.6088 O   0  0  0  0  0  0  0  0  0  0  0  0
   32.3205   40.4110  -40.3692 H   0  0  0  0  0  0  0  0  0  0  0  0
   33.7713   41.0376  -35.8410 C   0  0  0  0  0  0  0  0  0  0  0  0
   34.2841   39.7186  -36.3461 C   0  0  0  0  0  0  0  0  0  0  0  0
   35.6070   39.3173  -36.3763 C   0  0  0  0  0  0  0  0  0  0  0  0
   35.6846   38.1013  -36.9555 N   0  0  0  0  0  0  0  0  0  0  0  0
   34.4028   37.7932  -37.2618 C   0  0  0  0  0  0  0  0  0  0  0  0
   33.5303   38.7543  -36.8945 N   0  0  0  0  0  0  0  0  0  0  0  0
   32.4984   38.7541  -37.0454 H   0  0  0  0  0  0  0  0  0  0  0  0
 95 96  1  0  0  0
 96 91  1  0  0  0
 91 92  2  0  0  0
 91 93  1  0  0  0
 93 90  1  0  0  0
 90103  1  0  0  0
103104  1  0  0  0
104105  1  0  0  0
105106  2  0  0  0
105107  1  0  0  0
 90 86  1  0  0  0
 86 87  2  0  0  0
 86 88  1  0  0  0
 88 85  1  0  0  0
 85110  1  0  0  0
110111  1  0  0  0
111112  1  0  0  0
112113  2  0  0  0
112114  1  0  0  0
 85 81  1  0  0  0
 81 82  2  0  0  0
 81 83  1  0  0  0
 83 79  1  0  0  0
 79 80  1  0  0  0
 79 75  1  0  0  0
 75 76  2  0  0  0
 75 77  1  0  0  0
 77 74  1  0  0  0
 74117  1  0  0  0
117118  1  0  0  0
 74 70  1  0  0  0
 70 71  2  0  0  0
 70 72  1  0  0  0
 72 69  1  0  0  0
 69120  1  0  0  0
120121  1  0  0  0
121122  2  0  0  0
122123  1  0  0  0
123124  2  0  0  0
124125  1  0  0  0
 69 65  1  0  0  0
 65 66  2  0  0  0
 65 67  1  0  0  0
 67  1  1  0  0  0
  1  2  1  0  0  0
  2  3  2  0  0  0
  3  4  1  0  0  0
  4  5  2  0  0  0
  5  6  1  0  0  0
  5  7  1  0  0  0
  7  8  2  0  0  0
  1 10  1  0  0  0
 10 11  2  0  0  0
 10 12  1  0  0  0
 12 14  1  0  0  0
 14 58  1  0  0  0
 58 59  1  0  0  0
 59 60  1  0  0  0
 60 61  1  0  0  0
 61 62  1  0  0  0
 14 15  1  0  0  0
 15 16  2  0  0  0
 15 17  1  0  0  0
 17 19  1  0  0  0
 19 51  1  0  0  0
 51 52  1  0  0  0
 52 53  1  0  0  0
 53 54  2  0  0  0
 53 55  1  0  0  0
 19 20  1  0  0  0
 20 21  2  0  0  0
 20 22  1  0  0  0
 22 24  1  0  0  0
 24 44  1  0  0  0
 44 45  1  0  0  0
 45 46  2  0  0  0
 46 47  1  0  0  0
 47 48  2  0  0  0
 48 49  1  0  0  0
 24 25  1  0  0  0
 25 26  2  0  0  0
 25 27  1  0  0  0
 27 29  1  0  0  0
 29 41  1  0  0  0
 41 42  1  0  0  0
 29 30  1  0  0  0
 30 31  2  0  0  0
 30 32  1  0  0  0
 32 33  1  0  0  0
 33 34  1  0  0  0
 34 35  1  0  0  0
 35 36  1  0  0  0
 36 37  1  0  0  0
 37 38  1  0  0  0
 37 39  2  0  0  0
 96 99  1  0  0  0
 99100  1  0  0  0
 99101  1  0  0  0
125121  1  0  0  0
  8  2  1  0  0  0
 49 45  1  0  0  0
 36 32  1  0  0  0
 95 97  1  0  0  0
 95 98  1  0  0  0
 93 94  1  0  0  0
107108  1  0  0  0
107109  1  0  0  0
 88 89  1  0  0  0
114115  1  0  0  0
114116  1  0  0  0
 83 84  1  0  0  0
 77 78  1  0  0  0
118119  1  0  0  0
 72 73  1  0  0  0
125126  1  0  0  0
 67 68  1  0  0  0
  6  9  1  0  0  0
 12 13  1  0  0  0
 62 63  1  0  0  0
 62 64  1  0  0  0
 17 18  1  0  0  0
 55 56  1  0  0  0
 55 57  1  0  0  0
 22 23  1  0  0  0
 49 50  1  0  0  0
 27 28  1  0  0  0
 42 43  1  0  0  0
 38 40  1  0  0  0
100102  1  0  0  0
M  END
> <minimizedAffinity>
-6.45096

$$$$



126129  0  0  0  0  0  0  0  0999 V2000
   32.4049   42.4553  -31.0430 C   0  0  0  0  0  0  0  0  0  0  0  0
   33.7407   41.7516  -30.9785 C   0  0  0  0  0  0  0  0  0  0  0  0
   34.9443   42.4751  -31.0579 C   0  0  0  0  0  0  0  0  0  0  0  0
   36.1722   41.8184  -30.9475 C   0  0  0  0  0  0  0  0  0  0  0  0
   36.2164   40.4290  -30.7766 C   0  0  0  0  0  0  0  0  0  0  0  0
   37.4470   39.7830  -30.6646 O   0  0  0  0  0  0  0  0  0  0  0  0
   35.0234   39.6992  -30.7129 C   0  0  0  0  0  0  0  0  0  0  0  0
   33.7937   40.3595  -30.8040 C   0  0  0  0  0  0  0  0  0  0  0  0
   37.5052   38.7744  -30.5852 H   0  0  0  0  0  0  0  0  0  0  0  0
   31.8860   42.4854  -32.4568 C   0  0  0  0  0  0  0  0  0  0  0  0
   30.6807   42.2156  -32.7014 O   0  0  0  0  0  0  0  0  0  0  0  0
   32.7805   42.7813  -33.5380 N   0  0  0  0  0  0  0  0  0  0  0  0
   33.4594   43.5627  -33.3865 H   0  0  0  0  0  0  0  0  0  0  0  0
   33.0740   41.8617  -34.6496 C   0  0  0  0  0  0  0  0  0  0  0  0
   34.5247   41.4475  -34.5779 C   0  0  0  0  0  0  0  0  0  0  0  0
   35.4390   42.3195  -34.5274 O   0  0  0  0  0  0  0  0  0  0  0  0
   34.8619   40.0534  -34.5805 N   0  0  0  0  0  0  0  0  0  0  0  0
   34.0954   39.3631  -34.4082 H   0  0  0  0  0  0  0  0  0  0  0  0
   36.1076   39.5618  -35.1801 C   0  0  0  0  0  0  0  0  0  0  0  0
   37.1809   39.4640  -34.1228 C   0  0  0  0  0  0  0  0  0  0  0  0
   37.2707   38.4185  -33.4262 O   0  0  0  0  0  0  0  0  0  0  0  0
   38.1364   40.5275  -33.9551 N   0  0  0  0  0  0  0  0  0  0  0  0
   38.0654   41.3427  -34.6094 H   0  0  0  0  0  0  0  0  0  0  0  0
   39.3405   40.3682  -33.1226 C   0  0  0  0  0  0  0  0  0  0  0  0
   39.7290   41.6627  -32.4371 C   0  0  0  0  0  0  0  0  0  0  0  0
   39.0926   42.7185  -32.7036 O   0  0  0  0  0  0  0  0  0  0  0  0
   40.8942   41.7603  -31.5957 N   0  0  0  0  0  0  0  0  0  0  0  0
   41.4585   42.6374  -31.6943 H   0  0  0  0  0  0  0  0  0  0  0  0
   41.1767   40.9356  -30.4065 C   0  0  0  0  0  0  0  0  0  0  0  0
   42.6613   40.7154  -30.2218 C   0  0  0  0  0  0  0  0  0  0  0  0
   43.4186   41.6932  -30.0028 O   0  0  0  0  0  0  0  0  0  0  0  0
   43.2500   39.4226  -30.4191 N   0  0  0  0  0  0  0  0  0  0  0  0
   43.4802   38.4879  -29.3313 C   0  0  0  0  0  0  0  0  0  0  0  0
   44.4930   37.4835  -29.8610 C   0  0  0  0  0  0  0  0  0  0  0  0
   44.4499   37.6207  -31.3814 C   0  0  0  0  0  0  0  0  0  0  0  0
   43.9164   39.0282  -31.6536 C   0  0  0  0  0  0  0  0  0  0  0  0
   45.0337   39.9766  -31.9920 C   0  0  0  0  0  0  0  0  0  0  0  0
   46.1929   39.9723  -31.2295 O   0  0  0  0  0  0  0  0  0  0  0  0
   44.9067   40.7938  -32.9432 O   0  0  0  0  0  0  0  0  0  0  0  0
   46.9507   40.6131  -31.4314 H   0  0  0  0  0  0  0  0  0  0  0  0
   40.4925   41.5146  -29.1514 C   0  0  0  0  0  0  0  0  0  0  0  0
   41.2724   40.9236  -27.6110 S   0  0  0  0  0  0  0  0  0  0  0  0
   42.5514   41.4131  -27.9147 H   0  0  0  0  0  0  0  0  0  0  0  0
   40.5028   39.8294  -33.9843 C   0  0  0  0  0  0  0  0  0  0  0  0
   40.4984   38.3259  -34.0893 C   0  0  0  0  0  0  0  0  0  0  0  0
   41.0152   37.4390  -33.1727 C   0  0  0  0  0  0  0  0  0  0  0  0
   40.8562   36.1833  -33.6337 N   0  0  0  0  0  0  0  0  0  0  0  0
   40.2533   36.3404  -34.8317 C   0  0  0  0  0  0  0  0  0  0  0  0
   40.0220   37.6302  -35.1369 N   0  0  0  0  0  0  0  0  0  0  0  0
   39.6075   38.0069  -36.0182 H   0  0  0  0  0  0  0  0  0  0  0  0
   35.8761   38.1777  -35.8228 C   0  0  0  0  0  0  0  0  0  0  0  0
   34.7199   38.1879  -36.8374 C   0  0  0  0  0  0  0  0  0  0  0  0
   35.2344   38.1281  -38.2492 C   0  0  0  0  0  0  0  0  0  0  0  0
   35.7057   39.1641  -38.7896 O   0  0  0  0  0  0  0  0  0  0  0  0
   35.1838   36.9055  -38.9872 N   0  0  0  0  0  0  0  0  0  0  0  0
   35.5814   36.8546  -39.9516 H   0  0  0  0  0  0  0  0  0  0  0  0
   34.7421   36.0499  -38.5849 H   0  0  0  0  0  0  0  0  0  0  0  0
   32.6865   42.4320  -36.0378 C   0  0  0  0  0  0  0  0  0  0  0  0
   33.0353   41.4714  -37.1877 C   0  0  0  0  0  0  0  0  0  0  0  0
   33.7230   42.1754  -38.3714 C   0  0  0  0  0  0  0  0  0  0  0  0
   33.2810   41.6850  -39.7662 C   0  0  0  0  0  0  0  0  0  0  0  0
   32.0911   42.3838  -40.2579 N   0  0  0  0  0  0  0  0  0  0  0  0
   32.3524   43.3698  -40.4976 H   0  0  0  0  0  0  0  0  0  0  0  0
   31.3764   42.4165  -39.5021 H   0  0  0  0  0  0  0  0  0  0  0  0
   30.5301   42.6039  -29.3785 C   0  0  0  0  0  0  0  0  0  0  0  0
   30.9514   43.5935  -28.7222 O   0  0  0  0  0  0  0  0  0  0  0  0
   31.4434   41.8119  -30.1423 N   0  0  0  0  0  0  0  0  0  0  0  0
   31.3002   40.7759  -30.1840 H   0  0  0  0  0  0  0  0  0  0  0  0
   29.0548   42.3793  -29.5370 C   0  0  0  0  0  0  0  0  0  0  0  0
   27.9015   43.9334  -31.1949 C   0  0  0  0  0  0  0  0  0  0  0  0
   27.0655   43.8868  -32.1437 O   0  0  0  0  0  0  0  0  0  0  0  0
   28.6802   42.7609  -30.9012 N   0  0  0  0  0  0  0  0  0  0  0  0
   28.6889   42.0176  -31.6326 H   0  0  0  0  0  0  0  0  0  0  0  0
   28.1411   45.2344  -30.4582 C   0  0  0  0  0  0  0  0  0  0  0  0
   26.2520   46.6488  -29.5363 C   0  0  0  0  0  0  0  0  0  0  0  0
   26.2020   45.9551  -28.4831 O   0  0  0  0  0  0  0  0  0  0  0  0
   27.0463   46.1977  -30.6457 N   0  0  0  0  0  0  0  0  0  0  0  0
   26.8516   46.6103  -31.5834 H   0  0  0  0  0  0  0  0  0  0  0  0
   25.5049   47.9575  -29.6372 C   0  0  0  0  0  0  0  0  0  0  0  0
   24.1286   47.8086  -28.9900 C   0  0  0  0  0  0  0  0  0  0  0  0
   25.0095   49.7645  -31.3737 C   0  0  0  0  0  0  0  0  0  0  0  0
   24.6521   50.5746  -30.4760 O   0  0  0  0  0  0  0  0  0  0  0  0
   25.3639   48.4135  -31.0311 N   0  0  0  0  0  0  0  0  0  0  0  0
   25.5639   47.7668  -31.8233 H   0  0  0  0  0  0  0  0  0  0  0  0
   25.0604   50.2240  -32.8100 C   0  0  0  0  0  0  0  0  0  0  0  0
   22.7641   50.4013  -33.8738 C   0  0  0  0  0  0  0  0  0  0  0  0
   22.5254   50.6733  -35.0836 O   0  0  0  0  0  0  0  0  0  0  0  0
   23.9384   49.6451  -33.5561 N   0  0  0  0  0  0  0  0  0  0  0  0
   24.1594   48.8633  -34.2055 H   0  0  0  0  0  0  0  0  0  0  0  0
   21.7126   50.7510  -32.8338 C   0  0  0  0  0  0  0  0  0  0  0  0
   21.9512   53.2528  -32.7998 C   0  0  0  0  0  0  0  0  0  0  0  0
   20.8959   53.5695  -33.4150 O   0  0  0  0  0  0  0  0  0  0  0  0
   22.0211   51.9936  -32.1226 N   0  0  0  0  0  0  0  0  0  0  0  0
   22.2536   51.9864  -31.1065 H   0  0  0  0  0  0  0  0  0  0  0  0
   22.7502   55.5620  -32.8935 N   0  0  0  0  0  0  0  0  0  0  0  0
   23.1668   54.1537  -32.8559 C   0  0  0  0  0  0  0  0  0  0  0  0
   23.5987   56.1517  -33.0630 H   0  0  0  0  0  0  0  0  0  0  0  0
   22.1354   55.7045  -33.7263 H   0  0  0  0  0  0  0  0  0  0  0  0
   24.1347   53.8824  -31.6828 C   0  0  0  0  0  0  0  0  0  0  0  0
   25.3913   54.4385  -31.9937 O   0  0  0  0  0  0  0  0  0  0  0  0
   23.6335   54.4709  -30.3563 C   0  0  0  0  0  0  0  0  0  0  0  0
   26.0454   54.0399  -31.3649 H   0  0  0  0  0  0  0  0  0  0  0  0
   21.4895   49.5929  -31.8457 C   0  0  0  0  0  0  0  0  0  0  0  0
   20.3790   49.8566  -30.8131 C   0  0  0  0  0  0  0  0  0  0  0  0
   20.8773   49.7379  -29.3948 C   0  0  0  0  0  0  0  0  0  0  0  0
   20.3564   48.9265  -28.5857 O   0  0  0  0  0  0  0  0  0  0  0  0
   21.9693   50.5471  -28.9622 N   0  0  0  0  0  0  0  0  0  0  0  0
   22.3353   50.4613  -27.9902 H   0  0  0  0  0  0  0  0  0  0  0  0
   22.4467   51.1990  -29.6275 H   0  0  0  0  0  0  0  0  0  0  0  0
   26.4130   49.9706  -33.5411 C   0  0  0  0  0  0  0  0  0  0  0  0
   26.7051   50.7863  -34.8179 C   0  0  0  0  0  0  0  0  0  0  0  0
   26.2875   52.2390  -34.8044 C   0  0  0  0  0  0  0  0  0  0  0  0
   25.2497   52.5663  -35.4329 O   0  0  0  0  0  0  0  0  0  0  0  0
   27.0430   53.2630  -34.1487 N   0  0  0  0  0  0  0  0  0  0  0  0
   27.9972   53.1014  -33.7661 H   0  0  0  0  0  0  0  0  0  0  0  0
   26.6872   54.2482  -34.1457 H   0  0  0  0  0  0  0  0  0  0  0  0
   29.4830   45.8402  -30.9193 C   0  0  0  0  0  0  0  0  0  0  0  0
   29.9924   45.1444  -32.0294 O   0  0  0  0  0  0  0  0  0  0  0  0
   29.5913   45.5684  -32.8363 H   0  0  0  0  0  0  0  0  0  0  0  0
   28.2377   43.1722  -28.5004 C   0  0  0  0  0  0  0  0  0  0  0  0
   27.8074   42.2784  -27.3718 C   0  0  0  0  0  0  0  0  0  0  0  0
   28.6351   41.7175  -26.4167 C   0  0  0  0  0  0  0  0  0  0  0  0
   27.9005   40.9254  -25.6085 N   0  0  0  0  0  0  0  0  0  0  0  0
   26.6412   41.0269  -26.0937 C   0  0  0  0  0  0  0  0  0  0  0  0
   26.5544   41.8495  -27.1594 N   0  0  0  0  0  0  0  0  0  0  0  0
   25.6989   42.0665  -27.7148 H   0  0  0  0  0  0  0  0  0  0  0  0
 95 96  1  0  0  0
 96 91  1  0  0  0
 91 92  2  0  0  0
 91 93  1  0  0  0
 93 90  1  0  0  0
 90103  1  0  0  0
103104  1  0  0  0
104105  1  0  0  0
105106  2  0  0  0
105107  1  0  0  0
 90 86  1  0  0  0
 86 87  2  0  0  0
 86 88  1  0  0  0
 88 85  1  0  0  0
 85110  1  0  0  0
110111  1  0  0  0
111112  1  0  0  0
112113  2  0  0  0
112114  1  0  0  0
 85 81  1  0  0  0
 81 82  2  0  0  0
 81 83  1  0  0  0
 83 79  1  0  0  0
 79 80  1  0  0  0
 79 75  1  0  0  0
 75 76  2  0  0  0
 75 77  1  0  0  0
 77 74  1  0  0  0
 74117  1  0  0  0
117118  1  0  0  0
 74 70  1  0  0  0
 70 71  2  0  0  0
 70 72  1  0  0  0
 72 69  1  0  0  0
 69120  1  0  0  0
120121  1  0  0  0
121122  2  0  0  0
122123  1  0  0  0
123124  2  0  0  0
124125  1  0  0  0
 69 65  1  0  0  0
 65 66  2  0  0  0
 65 67  1  0  0  0
 67  1  1  0  0  0
  1  2  1  0  0  0
  2  3  2  0  0  0
  3  4  1  0  0  0
  4  5  2  0  0  0
  5  6  1  0  0  0
  5  7  1  0  0  0
  7  8  2  0  0  0
  1 10  1  0  0  0
 10 11  2  0  0  0
 10 12  1  0  0  0
 12 14  1  0  0  0
 14 58  1  0  0  0
 58 59  1  0  0  0
 59 60  1  0  0  0
 60 61  1  0  0  0
 61 62  1  0  0  0
 14 15  1  0  0  0
 15 16  2  0  0  0
 15 17  1  0  0  0
 17 19  1  0  0  0
 19 51  1  0  0  0
 51 52  1  0  0  0
 52 53  1  0  0  0
 53 54  2  0  0  0
 53 55  1  0  0  0
 19 20  1  0  0  0
 20 21  2  0  0  0
 20 22  1  0  0  0
 22 24  1  0  0  0
 24 44  1  0  0  0
 44 45  1  0  0  0
 45 46  2  0  0  0
 46 47  1  0  0  0
 47 48  2  0  0  0
 48 49  1  0  0  0
 24 25  1  0  0  0
 25 26  2  0  0  0
 25 27  1  0  0  0
 27 29  1  0  0  0
 29 41  1  0  0  0
 41 42  1  0  0  0
 29 30  1  0  0  0
 30 31  2  0  0  0
 30 32  1  0  0  0
 32 33  1  0  0  0
 33 34  1  0  0  0
 34 35  1  0  0  0
 35 36  1  0  0  0
 36 37  1  0  0  0
 37 38  1  0  0  0
 37 39  2  0  0  0
 96 99  1  0  0  0
 99100  1  0  0  0
 99101  1  0  0  0
125121  1  0  0  0
  8  2  1  0  0  0
 49 45  1  0  0  0
 36 32  1  0  0  0
 95 97  1  0  0  0
 95 98  1  0  0  0
 93 94  1  0  0  0
107108  1  0  0  0
107109  1  0  0  0
 88 89  1  0  0  0
114115  1  0  0  0
114116  1  0  0  0
 83 84  1  0  0  0
 77 78  1  0  0  0
118119  1  0  0  0
 72 73  1  0  0  0
125126  1  0  0  0
 67 68  1  0  0  0
  6  9  1  0  0  0
 12 13  1  0  0  0
 62 63  1  0  0  0
 62 64  1  0  0  0
 17 18  1  0  0  0
 55 56  1  0  0  0
 55 57  1  0  0  0
 22 23  1  0  0  0
 49 50  1  0  0  0
 27 28  1  0  0  0
 42 43  1  0  0  0
 38 40  1  0  0  0
100102  1  0  0  0
M  END
> <minimizedAffinity>
-6.44305

$$$$



126129  0  0  0  0  0  0  0  0999 V2000
   32.2442   43.1118  -31.5437 C   0  0  0  0  0  0  0  0  0  0  0  0
   32.4604   42.7540  -32.9959 C   0  0  0  0  0  0  0  0  0  0  0  0
   31.8894   43.5256  -34.0240 C   0  0  0  0  0  0  0  0  0  0  0  0
   32.1373   43.2135  -35.3628 C   0  0  0  0  0  0  0  0  0  0  0  0
   32.9414   42.1157  -35.6942 C   0  0  0  0  0  0  0  0  0  0  0  0
   33.1852   41.8140  -37.0335 O   0  0  0  0  0  0  0  0  0  0  0  0
   33.5004   41.3326  -34.6772 C   0  0  0  0  0  0  0  0  0  0  0  0
   33.2679   41.6571  -33.3366 C   0  0  0  0  0  0  0  0  0  0  0  0
   33.7267   40.9993  -37.2979 H   0  0  0  0  0  0  0  0  0  0  0  0
   32.3174   44.6033  -31.3456 C   0  0  0  0  0  0  0  0  0  0  0  0
   31.2812   45.2632  -31.0696 O   0  0  0  0  0  0  0  0  0  0  0  0
   33.5683   45.2840  -31.5146 N   0  0  0  0  0  0  0  0  0  0  0  0
   34.4135   44.8239  -31.1043 H   0  0  0  0  0  0  0  0  0  0  0  0
   33.8130   46.3378  -32.5132 C   0  0  0  0  0  0  0  0  0  0  0  0
   35.1968   46.1583  -33.0915 C   0  0  0  0  0  0  0  0  0  0  0  0
   35.5166   46.7229  -34.1766 O   0  0  0  0  0  0  0  0  0  0  0  0
   36.1462   45.3297  -32.4064 N   0  0  0  0  0  0  0  0  0  0  0  0
   35.9344   45.0531  -31.4204 H   0  0  0  0  0  0  0  0  0  0  0  0
   37.1660   44.5630  -33.1314 C   0  0  0  0  0  0  0  0  0  0  0  0
   38.1737   44.0024  -32.1569 C   0  0  0  0  0  0  0  0  0  0  0  0
   39.2659   44.6043  -31.9804 O   0  0  0  0  0  0  0  0  0  0  0  0
   37.8644   42.8271  -31.3855 N   0  0  0  0  0  0  0  0  0  0  0  0
   36.9133   42.4067  -31.5138 H   0  0  0  0  0  0  0  0  0  0  0  0
   38.7008   42.3969  -30.2526 C   0  0  0  0  0  0  0  0  0  0  0  0
   39.3709   41.0640  -30.5188 C   0  0  0  0  0  0  0  0  0  0  0  0
   40.2570   40.6479  -29.7236 O   0  0  0  0  0  0  0  0  0  0  0  0
   39.1324   40.3186  -31.7282 N   0  0  0  0  0  0  0  0  0  0  0  0
   39.9714   39.8603  -32.1569 H   0  0  0  0  0  0  0  0  0  0  0  0
   37.8197   39.8644  -32.2225 C   0  0  0  0  0  0  0  0  0  0  0  0
   37.9510   39.0732  -33.5045 C   0  0  0  0  0  0  0  0  0  0  0  0
   37.2781   39.3977  -34.5141 O   0  0  0  0  0  0  0  0  0  0  0  0
   38.7350   37.8736  -33.5592 N   0  0  0  0  0  0  0  0  0  0  0  0
   40.1216   37.8583  -33.9915 C   0  0  0  0  0  0  0  0  0  0  0  0
   40.4285   36.4078  -34.3342 C   0  0  0  0  0  0  0  0  0  0  0  0
   39.3418   35.5851  -33.6453 C   0  0  0  0  0  0  0  0  0  0  0  0
   38.1605   36.5383  -33.4556 C   0  0  0  0  0  0  0  0  0  0  0  0
   37.1102   36.3181  -34.5095 C   0  0  0  0  0  0  0  0  0  0  0  0
   35.7878   36.6392  -34.2388 O   0  0  0  0  0  0  0  0  0  0  0  0
   37.4227   35.8149  -35.6220 O   0  0  0  0  0  0  0  0  0  0  0  0
   35.0632   36.4847  -34.9293 H   0  0  0  0  0  0  0  0  0  0  0  0
   37.0417   39.1096  -31.1253 C   0  0  0  0  0  0  0  0  0  0  0  0
   35.3716   39.7998  -30.8709 S   0  0  0  0  0  0  0  0  0  0  0  0
   34.9459   39.6055  -32.1931 H   0  0  0  0  0  0  0  0  0  0  0  0
   37.8478   42.3390  -28.9669 C   0  0  0  0  0  0  0  0  0  0  0  0
   38.0810   43.5218  -28.0625 C   0  0  0  0  0  0  0  0  0  0  0  0
   38.2344   44.8330  -28.4514 C   0  0  0  0  0  0  0  0  0  0  0  0
   38.4610   45.5937  -27.3630 N   0  0  0  0  0  0  0  0  0  0  0  0
   38.4511   44.7185  -26.3349 C   0  0  0  0  0  0  0  0  0  0  0  0
   38.2223   43.4519  -26.7270 N   0  0  0  0  0  0  0  0  0  0  0  0
   38.2077   42.5972  -26.1272 H   0  0  0  0  0  0  0  0  0  0  0  0
   36.5033   43.4139  -33.9206 C   0  0  0  0  0  0  0  0  0  0  0  0
   37.1617   43.1882  -35.2924 C   0  0  0  0  0  0  0  0  0  0  0  0
   36.1952   43.4619  -36.4114 C   0  0  0  0  0  0  0  0  0  0  0  0
   35.4427   44.4710  -36.3578 O   0  0  0  0  0  0  0  0  0  0  0  0
   36.1168   42.5793  -37.5326 N   0  0  0  0  0  0  0  0  0  0  0  0
   35.4767   42.7943  -38.3295 H   0  0  0  0  0  0  0  0  0  0  0  0
   36.6842   41.7044  -37.5718 H   0  0  0  0  0  0  0  0  0  0  0  0
   33.5782   47.7691  -31.9667 C   0  0  0  0  0  0  0  0  0  0  0  0
   33.6251   47.8281  -30.4301 C   0  0  0  0  0  0  0  0  0  0  0  0
   34.3863   49.0561  -29.8987 C   0  0  0  0  0  0  0  0  0  0  0  0
   35.8442   48.7838  -29.4727 C   0  0  0  0  0  0  0  0  0  0  0  0
   36.2946   47.4375  -29.8344 N   0  0  0  0  0  0  0  0  0  0  0  0
   36.4074   47.3863  -30.8748 H   0  0  0  0  0  0  0  0  0  0  0  0
   35.5672   46.7470  -29.5567 H   0  0  0  0  0  0  0  0  0  0  0  0
   30.8839   41.8994  -29.8155 C   0  0  0  0  0  0  0  0  0  0  0  0
   31.7143   40.9937  -29.5371 O   0  0  0  0  0  0  0  0  0  0  0  0
   30.9625   42.5795  -31.0708 N   0  0  0  0  0  0  0  0  0  0  0  0
   30.0747   42.8447  -31.5576 H   0  0  0  0  0  0  0  0  0  0  0  0
   29.9512   42.4155  -28.7591 C   0  0  0  0  0  0  0  0  0  0  0  0
   29.9011   42.1620  -26.2239 C   0  0  0  0  0  0  0  0  0  0  0  0
   30.6663   41.8404  -25.2687 O   0  0  0  0  0  0  0  0  0  0  0  0
   30.1761   41.6412  -27.5356 N   0  0  0  0  0  0  0  0  0  0  0  0
   30.8425   40.8405  -27.5839 H   0  0  0  0  0  0  0  0  0  0  0  0
   28.6653   42.9955  -25.9582 C   0  0  0  0  0  0  0  0  0  0  0  0
   27.7892   44.8011  -24.4118 C   0  0  0  0  0  0  0  0  0  0  0  0
   26.9547   45.1844  -25.2776 O   0  0  0  0  0  0  0  0  0  0  0  0
   28.8136   43.8629  -24.7804 N   0  0  0  0  0  0  0  0  0  0  0  0
   29.6473   43.7836  -24.1592 H   0  0  0  0  0  0  0  0  0  0  0  0
   27.7115   45.2994  -22.9881 C   0  0  0  0  0  0  0  0  0  0  0  0
   26.2528   45.3121  -22.5327 C   0  0  0  0  0  0  0  0  0  0  0  0
   29.7075   46.8935  -23.0137 C   0  0  0  0  0  0  0  0  0  0  0  0
   30.5127   45.9346  -23.1620 O   0  0  0  0  0  0  0  0  0  0  0  0
   28.3036   46.6395  -22.8328 N   0  0  0  0  0  0  0  0  0  0  0  0
   27.7016   47.4645  -22.6261 H   0  0  0  0  0  0  0  0  0  0  0  0
   30.2297   48.3091  -23.0261 C   0  0  0  0  0  0  0  0  0  0  0  0
   32.0962   49.5889  -21.8797 C   0  0  0  0  0  0  0  0  0  0  0  0
   31.9514   50.4907  -21.0078 O   0  0  0  0  0  0  0  0  0  0  0  0
   31.1618   48.5037  -21.9107 N   0  0  0  0  0  0  0  0  0  0  0  0
   30.8677   48.1366  -20.9831 H   0  0  0  0  0  0  0  0  0  0  0  0
   33.3441   49.6161  -22.7466 C   0  0  0  0  0  0  0  0  0  0  0  0
   34.7445   47.5502  -23.0428 C   0  0  0  0  0  0  0  0  0  0  0  0
   35.0787   47.6983  -24.2506 O   0  0  0  0  0  0  0  0  0  0  0  0
   34.3782   48.6964  -22.2674 N   0  0  0  0  0  0  0  0  0  0  0  0
   34.8921   48.8827  -21.3799 H   0  0  0  0  0  0  0  0  0  0  0  0
   35.9539   45.5060  -22.4612 N   0  0  0  0  0  0  0  0  0  0  0  0
   34.6402   46.1633  -22.4444 C   0  0  0  0  0  0  0  0  0  0  0  0
   35.8272   44.5097  -22.1653 H   0  0  0  0  0  0  0  0  0  0  0  0
   36.2934   45.4671  -23.4487 H   0  0  0  0  0  0  0  0  0  0  0  0
   34.0448   46.1983  -21.0193 C   0  0  0  0  0  0  0  0  0  0  0  0
   32.6392   46.1831  -21.1145 O   0  0  0  0  0  0  0  0  0  0  0  0
   34.5079   45.0154  -20.1572 C   0  0  0  0  0  0  0  0  0  0  0  0
   32.2883   46.4606  -20.2301 H   0  0  0  0  0  0  0  0  0  0  0  0
   33.9009   51.0433  -22.8892 C   0  0  0  0  0  0  0  0  0  0  0  0
   34.9239   51.2051  -24.0277 C   0  0  0  0  0  0  0  0  0  0  0  0
   35.1462   52.6505  -24.3955 C   0  0  0  0  0  0  0  0  0  0  0  0
   36.2901   53.1719  -24.3308 O   0  0  0  0  0  0  0  0  0  0  0  0
   34.0457   53.4411  -24.8405 N   0  0  0  0  0  0  0  0  0  0  0  0
   34.1894   54.4359  -25.1154 H   0  0  0  0  0  0  0  0  0  0  0  0
   33.0931   53.0197  -24.9431 H   0  0  0  0  0  0  0  0  0  0  0  0
   29.1372   49.4201  -23.0471 C   0  0  0  0  0  0  0  0  0  0  0  0
   28.4828   49.8117  -21.7057 C   0  0  0  0  0  0  0  0  0  0  0  0
   26.9736   49.7514  -21.6448 C   0  0  0  0  0  0  0  0  0  0  0  0
   26.4158   49.9078  -20.5296 O   0  0  0  0  0  0  0  0  0  0  0  0
   26.1558   49.4795  -22.7878 N   0  0  0  0  0  0  0  0  0  0  0  0
   26.5478   49.1630  -23.6984 H   0  0  0  0  0  0  0  0  0  0  0  0
   25.1128   49.4819  -22.6912 H   0  0  0  0  0  0  0  0  0  0  0  0
   27.4476   42.0622  -25.7959 C   0  0  0  0  0  0  0  0  0  0  0  0
   27.8580   40.7400  -25.5517 O   0  0  0  0  0  0  0  0  0  0  0  0
   27.9770   40.6591  -24.5664 H   0  0  0  0  0  0  0  0  0  0  0  0
   28.4786   42.3303  -29.2007 C   0  0  0  0  0  0  0  0  0  0  0  0
   28.0405   43.6227  -29.8297 C   0  0  0  0  0  0  0  0  0  0  0  0
   27.5853   43.7841  -31.1253 C   0  0  0  0  0  0  0  0  0  0  0  0
   27.3480   45.0934  -31.3482 N   0  0  0  0  0  0  0  0  0  0  0  0
   27.6644   45.6956  -30.1783 C   0  0  0  0  0  0  0  0  0  0  0  0
   28.0796   44.8245  -29.2355 N   0  0  0  0  0  0  0  0  0  0  0  0
   28.3977   45.0525  -28.2689 H   0  0  0  0  0  0  0  0  0  0  0  0
 95 96  1  0  0  0
 96 91  1  0  0  0
 91 92  2  0  0  0
 91 93  1  0  0  0
 93 90  1  0  0  0
 90103  1  0  0  0
103104  1  0  0  0
104105  1  0  0  0
105106  2  0  0  0
105107  1  0  0  0
 90 86  1  0  0  0
 86 87  2  0  0  0
 86 88  1  0  0  0
 88 85  1  0  0  0
 85110  1  0  0  0
110111  1  0  0  0
111112  1  0  0  0
112113  2  0  0  0
112114  1  0  0  0
 85 81  1  0  0  0
 81 82  2  0  0  0
 81 83  1  0  0  0
 83 79  1  0  0  0
 79 80  1  0  0  0
 79 75  1  0  0  0
 75 76  2  0  0  0
 75 77  1  0  0  0
 77 74  1  0  0  0
 74117  1  0  0  0
117118  1  0  0  0
 74 70  1  0  0  0
 70 71  2  0  0  0
 70 72  1  0  0  0
 72 69  1  0  0  0
 69120  1  0  0  0
120121  1  0  0  0
121122  2  0  0  0
122123  1  0  0  0
123124  2  0  0  0
124125  1  0  0  0
 69 65  1  0  0  0
 65 66  2  0  0  0
 65 67  1  0  0  0
 67  1  1  0  0  0
  1  2  1  0  0  0
  2  3  2  0  0  0
  3  4  1  0  0  0
  4  5  2  0  0  0
  5  6  1  0  0  0
  5  7  1  0  0  0
  7  8  2  0  0  0
  1 10  1  0  0  0
 10 11  2  0  0  0
 10 12  1  0  0  0
 12 14  1  0  0  0
 14 58  1  0  0  0
 58 59  1  0  0  0
 59 60  1  0  0  0
 60 61  1  0  0  0
 61 62  1  0  0  0
 14 15  1  0  0  0
 15 16  2  0  0  0
 15 17  1  0  0  0
 17 19  1  0  0  0
 19 51  1  0  0  0
 51 52  1  0  0  0
 52 53  1  0  0  0
 53 54  2  0  0  0
 53 55  1  0  0  0
 19 20  1  0  0  0
 20 21  2  0  0  0
 20 22  1  0  0  0
 22 24  1  0  0  0
 24 44  1  0  0  0
 44 45  1  0  0  0
 45 46  2  0  0  0
 46 47  1  0  0  0
 47 48  2  0  0  0
 48 49  1  0  0  0
 24 25  1  0  0  0
 25 26  2  0  0  0
 25 27  1  0  0  0
 27 29  1  0  0  0
 29 41  1  0  0  0
 41 42  1  0  0  0
 29 30  1  0  0  0
 30 31  2  0  0  0
 30 32  1  0  0  0
 32 33  1  0  0  0
 33 34  1  0  0  0
 34 35  1  0  0  0
 35 36  1  0  0  0
 36 37  1  0  0  0
 37 38  1  0  0  0
 37 39  2  0  0  0
 96 99  1  0  0  0
 99100  1  0  0  0
 99101  1  0  0  0
125121  1  0  0  0
  8  2  1  0  0  0
 49 45  1  0  0  0
 36 32  1  0  0  0
 95 97  1  0  0  0
 95 98  1  0  0  0
 93 94  1  0  0  0
107108  1  0  0  0
107109  1  0  0  0
 88 89  1  0  0  0
114115  1  0  0  0
114116  1  0  0  0
 83 84  1  0  0  0
 77 78  1  0  0  0
118119  1  0  0  0
 72 73  1  0  0  0
125126  1  0  0  0
 67 68  1  0  0  0
  6  9  1  0  0  0
 12 13  1  0  0  0
 62 63  1  0  0  0
 62 64  1  0  0  0
 17 18  1  0  0  0
 55 56  1  0  0  0
 55 57  1  0  0  0
 22 23  1  0  0  0
 49 50  1  0  0  0
 27 28  1  0  0  0
 42 43  1  0  0  0
 38 40  1  0  0  0
100102  1  0  0  0
M  END
> <minimizedAffinity>
-6.43172

$$$$



126129  0  0  0  0  0  0  0  0999 V2000
   32.2277   42.5345  -30.9394 C   0  0  0  0  0  0  0  0  0  0  0  0
   33.5648   41.8323  -30.8879 C   0  0  0  0  0  0  0  0  0  0  0  0
   33.6436   40.4363  -30.7347 C   0  0  0  0  0  0  0  0  0  0  0  0
   34.8840   39.7939  -30.7381 C   0  0  0  0  0  0  0  0  0  0  0  0
   36.0632   40.5372  -30.8741 C   0  0  0  0  0  0  0  0  0  0  0  0
   37.2964   39.8864  -30.8791 O   0  0  0  0  0  0  0  0  0  0  0  0
   35.9946   41.9289  -31.0106 C   0  0  0  0  0  0  0  0  0  0  0  0
   34.7514   42.5698  -31.0267 C   0  0  0  0  0  0  0  0  0  0  0  0
   38.1643   40.4068  -30.9313 H   0  0  0  0  0  0  0  0  0  0  0  0
   31.7109   42.5940  -32.3531 C   0  0  0  0  0  0  0  0  0  0  0  0
   30.5421   42.2116  -32.6232 O   0  0  0  0  0  0  0  0  0  0  0  0
   32.5702   43.0489  -33.4074 N   0  0  0  0  0  0  0  0  0  0  0  0
   33.1608   43.8880  -33.2038 H   0  0  0  0  0  0  0  0  0  0  0  0
   32.9628   42.2349  -34.5695 C   0  0  0  0  0  0  0  0  0  0  0  0
   34.4413   41.9373  -34.4871 C   0  0  0  0  0  0  0  0  0  0  0  0
   34.8465   40.7728  -34.2071 O   0  0  0  0  0  0  0  0  0  0  0  0
   35.3874   42.9906  -34.7166 N   0  0  0  0  0  0  0  0  0  0  0  0
   35.0396   43.8764  -35.1500 H   0  0  0  0  0  0  0  0  0  0  0  0
   36.6869   43.0226  -34.0357 C   0  0  0  0  0  0  0  0  0  0  0  0
   37.6245   42.0270  -34.6754 C   0  0  0  0  0  0  0  0  0  0  0  0
   38.0953   42.2657  -35.8189 O   0  0  0  0  0  0  0  0  0  0  0  0
   38.0312   40.8462  -33.9594 N   0  0  0  0  0  0  0  0  0  0  0  0
   37.6711   40.7309  -32.9823 H   0  0  0  0  0  0  0  0  0  0  0  0
   39.1288   39.9872  -34.4342 C   0  0  0  0  0  0  0  0  0  0  0  0
   38.9026   38.5319  -34.0773 C   0  0  0  0  0  0  0  0  0  0  0  0
   38.2551   38.2449  -33.0337 O   0  0  0  0  0  0  0  0  0  0  0  0
   39.5236   37.4606  -34.8134 N   0  0  0  0  0  0  0  0  0  0  0  0
   39.8842   36.6605  -34.2413 H   0  0  0  0  0  0  0  0  0  0  0  0
   39.4042   37.2215  -36.2634 C   0  0  0  0  0  0  0  0  0  0  0  0
   37.9578   37.1584  -36.7000 C   0  0  0  0  0  0  0  0  0  0  0  0
   37.2630   36.1486  -36.4265 O   0  0  0  0  0  0  0  0  0  0  0  0
   37.3901   38.1756  -37.5366 N   0  0  0  0  0  0  0  0  0  0  0  0
   36.6630   39.3159  -37.0066 C   0  0  0  0  0  0  0  0  0  0  0  0
   35.8669   39.8747  -38.1768 C   0  0  0  0  0  0  0  0  0  0  0  0
   36.5293   39.3084  -39.4309 C   0  0  0  0  0  0  0  0  0  0  0  0
   37.2454   38.0342  -38.9798 C   0  0  0  0  0  0  0  0  0  0  0  0
   36.4440   36.8093  -39.3256 C   0  0  0  0  0  0  0  0  0  0  0  0
   35.1616   36.6613  -38.8170 O   0  0  0  0  0  0  0  0  0  0  0  0
   36.9449   35.9058  -40.0477 O   0  0  0  0  0  0  0  0  0  0  0  0
   34.6112   35.8372  -39.0256 H   0  0  0  0  0  0  0  0  0  0  0  0
   40.2324   38.2448  -37.0671 C   0  0  0  0  0  0  0  0  0  0  0  0
   41.9612   37.7043  -37.2897 S   0  0  0  0  0  0  0  0  0  0  0  0
   41.6410   36.5029  -37.9388 H   0  0  0  0  0  0  0  0  0  0  0  0
   40.4713   40.4933  -33.8636 C   0  0  0  0  0  0  0  0  0  0  0  0
   40.3527   40.9709  -32.4391 C   0  0  0  0  0  0  0  0  0  0  0  0
   40.5543   40.2200  -31.3036 C   0  0  0  0  0  0  0  0  0  0  0  0
   40.3198   40.9849  -30.2199 N   0  0  0  0  0  0  0  0  0  0  0  0
   39.9681   42.1857  -30.7275 C   0  0  0  0  0  0  0  0  0  0  0  0
   39.9790   42.2096  -32.0726 N   0  0  0  0  0  0  0  0  0  0  0  0
   39.7077   43.0045  -32.6931 H   0  0  0  0  0  0  0  0  0  0  0  0
   37.2921   44.4402  -34.1156 C   0  0  0  0  0  0  0  0  0  0  0  0
   36.2805   45.4825  -34.6221 C   0  0  0  0  0  0  0  0  0  0  0  0
   35.7181   46.2916  -33.4863 C   0  0  0  0  0  0  0  0  0  0  0  0
   36.0186   45.9988  -32.2982 O   0  0  0  0  0  0  0  0  0  0  0  0
   34.8361   47.3861  -33.7440 N   0  0  0  0  0  0  0  0  0  0  0  0
   34.4813   47.9743  -32.9572 H   0  0  0  0  0  0  0  0  0  0  0  0
   34.5229   47.6102  -34.7138 H   0  0  0  0  0  0  0  0  0  0  0  0
   32.5581   42.8652  -35.9265 C   0  0  0  0  0  0  0  0  0  0  0  0
   33.1520   42.1095  -37.1277 C   0  0  0  0  0  0  0  0  0  0  0  0
   33.9065   43.0302  -38.1037 C   0  0  0  0  0  0  0  0  0  0  0  0
   33.4916   42.8898  -39.5833 C   0  0  0  0  0  0  0  0  0  0  0  0
   32.4893   41.8416  -39.7901 N   0  0  0  0  0  0  0  0  0  0  0  0
   31.5770   42.1610  -39.3857 H   0  0  0  0  0  0  0  0  0  0  0  0
   32.7822   40.9825  -39.2810 H   0  0  0  0  0  0  0  0  0  0  0  0
   30.3429   42.6430  -29.2831 C   0  0  0  0  0  0  0  0  0  0  0  0
   30.7533   43.6251  -28.6090 O   0  0  0  0  0  0  0  0  0  0  0  0
   31.2661   41.8699  -30.0543 N   0  0  0  0  0  0  0  0  0  0  0  0
   31.1308   40.8337  -30.1132 H   0  0  0  0  0  0  0  0  0  0  0  0
   28.8702   42.4101  -29.4533 C   0  0  0  0  0  0  0  0  0  0  0  0
   27.7363   44.0355  -31.0554 C   0  0  0  0  0  0  0  0  0  0  0  0
   26.8935   44.0336  -31.9993 O   0  0  0  0  0  0  0  0  0  0  0  0
   28.4943   42.8401  -30.8027 N   0  0  0  0  0  0  0  0  0  0  0  0
   28.4840   42.1192  -31.5563 H   0  0  0  0  0  0  0  0  0  0  0  0
   28.0055   45.3087  -30.2814 C   0  0  0  0  0  0  0  0  0  0  0  0
   25.9166   46.5361  -29.5404 C   0  0  0  0  0  0  0  0  0  0  0  0
   25.6254   45.6171  -28.7258 O   0  0  0  0  0  0  0  0  0  0  0  0
   26.9689   46.3288  -30.4970 N   0  0  0  0  0  0  0  0  0  0  0  0
   27.0010   46.9566  -31.3290 H   0  0  0  0  0  0  0  0  0  0  0  0
   25.1879   47.8586  -29.5082 C   0  0  0  0  0  0  0  0  0  0  0  0
   23.7989   47.6592  -28.9031 C   0  0  0  0  0  0  0  0  0  0  0  0
   24.6450   49.8240  -31.0472 C   0  0  0  0  0  0  0  0  0  0  0  0
   24.1936   50.4974  -30.0814 O   0  0  0  0  0  0  0  0  0  0  0  0
   25.0767   48.4671  -30.8453 N   0  0  0  0  0  0  0  0  0  0  0  0
   25.3553   47.9332  -31.6958 H   0  0  0  0  0  0  0  0  0  0  0  0
   24.7266   50.4533  -32.4161 C   0  0  0  0  0  0  0  0  0  0  0  0
   22.6354   51.7019  -33.1258 C   0  0  0  0  0  0  0  0  0  0  0  0
   22.4122   52.1859  -34.2705 O   0  0  0  0  0  0  0  0  0  0  0  0
   23.3932   50.4905  -33.0253 N   0  0  0  0  0  0  0  0  0  0  0  0
   23.1847   49.7686  -33.7443 H   0  0  0  0  0  0  0  0  0  0  0  0
   21.9544   52.3402  -31.9265 C   0  0  0  0  0  0  0  0  0  0  0  0
   23.3293   54.2680  -31.0840 C   0  0  0  0  0  0  0  0  0  0  0  0
   22.4592   55.1806  -31.1352 O   0  0  0  0  0  0  0  0  0  0  0  0
   22.9131   52.9029  -30.9729 N   0  0  0  0  0  0  0  0  0  0  0  0
   23.2736   52.3352  -30.1766 H   0  0  0  0  0  0  0  0  0  0  0  0
   25.2378   54.3435  -32.6109 N   0  0  0  0  0  0  0  0  0  0  0  0
   24.7979   54.6046  -31.2338 C   0  0  0  0  0  0  0  0  0  0  0  0
   26.2777   54.4591  -32.6517 H   0  0  0  0  0  0  0  0  0  0  0  0
   25.0557   53.3388  -32.8330 H   0  0  0  0  0  0  0  0  0  0  0  0
   25.0972   56.0604  -30.8121 C   0  0  0  0  0  0  0  0  0  0  0  0
   26.2426   56.0686  -29.9917 O   0  0  0  0  0  0  0  0  0  0  0  0
   25.3271   56.9874  -32.0141 C   0  0  0  0  0  0  0  0  0  0  0  0
   26.2629   56.9482  -29.5355 H   0  0  0  0  0  0  0  0  0  0  0  0
   20.9996   51.3553  -31.2296 C   0  0  0  0  0  0  0  0  0  0  0  0
   21.0180   51.4469  -29.6933 C   0  0  0  0  0  0  0  0  0  0  0  0
   20.6879   50.1294  -29.0380 C   0  0  0  0  0  0  0  0  0  0  0  0
   20.2539   49.1572  -29.7094 O   0  0  0  0  0  0  0  0  0  0  0  0
   20.8845   49.9725  -27.6340 N   0  0  0  0  0  0  0  0  0  0  0  0
   20.6780   49.0615  -27.1723 H   0  0  0  0  0  0  0  0  0  0  0  0
   21.2838   50.7520  -27.0609 H   0  0  0  0  0  0  0  0  0  0  0  0
   25.7686   49.8119  -33.3811 C   0  0  0  0  0  0  0  0  0  0  0  0
   26.9515   50.6861  -33.8475 C   0  0  0  0  0  0  0  0  0  0  0  0
   26.6143   51.8719  -34.7221 C   0  0  0  0  0  0  0  0  0  0  0  0
   25.6734   51.7553  -35.5469 O   0  0  0  0  0  0  0  0  0  0  0  0
   27.3451   53.1023  -34.6859 N   0  0  0  0  0  0  0  0  0  0  0  0
   28.2398   53.2109  -34.1656 H   0  0  0  0  0  0  0  0  0  0  0  0
   27.0450   53.9015  -35.2931 H   0  0  0  0  0  0  0  0  0  0  0  0
   29.3951   45.8556  -30.6695 C   0  0  0  0  0  0  0  0  0  0  0  0
   29.8480   45.2714  -31.8652 O   0  0  0  0  0  0  0  0  0  0  0  0
   29.4865   45.8296  -32.6064 H   0  0  0  0  0  0  0  0  0  0  0  0
   28.0434   43.1547  -28.3889 C   0  0  0  0  0  0  0  0  0  0  0  0
   27.6793   42.2305  -27.2616 C   0  0  0  0  0  0  0  0  0  0  0  0
   28.5511   41.7059  -26.3252 C   0  0  0  0  0  0  0  0  0  0  0  0
   27.8725   40.8699  -25.5123 N   0  0  0  0  0  0  0  0  0  0  0  0
   26.6016   40.9094  -25.9758 C   0  0  0  0  0  0  0  0  0  0  0  0
   26.4542   41.7350  -27.0326 N   0  0  0  0  0  0  0  0  0  0  0  0
   25.5793   41.9115  -27.5719 H   0  0  0  0  0  0  0  0  0  0  0  0
 95 96  1  0  0  0
 96 91  1  0  0  0
 91 92  2  0  0  0
 91 93  1  0  0  0
 93 90  1  0  0  0
 90103  1  0  0  0
103104  1  0  0  0
104105  1  0  0  0
105106  2  0  0  0
105107  1  0  0  0
 90 86  1  0  0  0
 86 87  2  0  0  0
 86 88  1  0  0  0
 88 85  1  0  0  0
 85110  1  0  0  0
110111  1  0  0  0
111112  1  0  0  0
112113  2  0  0  0
112114  1  0  0  0
 85 81  1  0  0  0
 81 82  2  0  0  0
 81 83  1  0  0  0
 83 79  1  0  0  0
 79 80  1  0  0  0
 79 75  1  0  0  0
 75 76  2  0  0  0
 75 77  1  0  0  0
 77 74  1  0  0  0
 74117  1  0  0  0
117118  1  0  0  0
 74 70  1  0  0  0
 70 71  2  0  0  0
 70 72  1  0  0  0
 72 69  1  0  0  0
 69120  1  0  0  0
120121  1  0  0  0
121122  2  0  0  0
122123  1  0  0  0
123124  2  0  0  0
124125  1  0  0  0
 69 65  1  0  0  0
 65 66  2  0  0  0
 65 67  1  0  0  0
 67  1  1  0  0  0
  1  2  1  0  0  0
  2  3  2  0  0  0
  3  4  1  0  0  0
  4  5  2  0  0  0
  5  6  1  0  0  0
  5  7  1  0  0  0
  7  8  2  0  0  0
  1 10  1  0  0  0
 10 11  2  0  0  0
 10 12  1  0  0  0
 12 14  1  0  0  0
 14 58  1  0  0  0
 58 59  1  0  0  0
 59 60  1  0  0  0
 60 61  1  0  0  0
 61 62  1  0  0  0
 14 15  1  0  0  0
 15 16  2  0  0  0
 15 17  1  0  0  0
 17 19  1  0  0  0
 19 51  1  0  0  0
 51 52  1  0  0  0
 52 53  1  0  0  0
 53 54  2  0  0  0
 53 55  1  0  0  0
 19 20  1  0  0  0
 20 21  2  0  0  0
 20 22  1  0  0  0
 22 24  1  0  0  0
 24 44  1  0  0  0
 44 45  1  0  0  0
 45 46  2  0  0  0
 46 47  1  0  0  0
 47 48  2  0  0  0
 48 49  1  0  0  0
 24 25  1  0  0  0
 25 26  2  0  0  0
 25 27  1  0  0  0
 27 29  1  0  0  0
 29 41  1  0  0  0
 41 42  1  0  0  0
 29 30  1  0  0  0
 30 31  2  0  0  0
 30 32  1  0  0  0
 32 33  1  0  0  0
 33 34  1  0  0  0
 34 35  1  0  0  0
 35 36  1  0  0  0
 36 37  1  0  0  0
 37 38  1  0  0  0
 37 39  2  0  0  0
 96 99  1  0  0  0
 99100  1  0  0  0
 99101  1  0  0  0
125121  1  0  0  0
  8  2  1  0  0  0
 49 45  1  0  0  0
 36 32  1  0  0  0
 95 97  1  0  0  0
 95 98  1  0  0  0
 93 94  1  0  0  0
107108  1  0  0  0
107109  1  0  0  0
 88 89  1  0  0  0
114115  1  0  0  0
114116  1  0  0  0
 83 84  1  0  0  0
 77 78  1  0  0  0
118119  1  0  0  0
 72 73  1  0  0  0
125126  1  0  0  0
 67 68  1  0  0  0
  6  9  1  0  0  0
 12 13  1  0  0  0
 62 63  1  0  0  0
 62 64  1  0  0  0
 17 18  1  0  0  0
 55 56  1  0  0  0
 55 57  1  0  0  0
 22 23  1  0  0  0
 49 50  1  0  0  0
 27 28  1  0  0  0
 42 43  1  0  0  0
 38 40  1  0  0  0
100102  1  0  0  0
M  END
> <minimizedAffinity>
-6.39534

$$$$
