


126129  0  0  0  0  0  0  0  0999 V2000
   68.5272  114.6489    8.0187 C   0  0  0  0  0  0  0  0  0  0  0  0
   67.8946  115.9711    7.6509 C   0  0  0  0  0  0  0  0  0  0  0  0
   68.6173  116.9460    6.9397 C   0  0  0  0  0  0  0  0  0  0  0  0
   68.0057  118.1441    6.5629 C   0  0  0  0  0  0  0  0  0  0  0  0
   66.6715  118.3942    6.9079 C   0  0  0  0  0  0  0  0  0  0  0  0
   66.0692  119.5919    6.5247 O   0  0  0  0  0  0  0  0  0  0  0  0
   65.9499  117.4361    7.6299 C   0  0  0  0  0  0  0  0  0  0  0  0
   66.5568  116.2284    7.9901 C   0  0  0  0  0  0  0  0  0  0  0  0
   65.1198  119.8140    6.8010 H   0  0  0  0  0  0  0  0  0  0  0  0
   69.6773  114.3339    7.0983 C   0  0  0  0  0  0  0  0  0  0  0  0
   70.8151  114.8328    7.3029 O   0  0  0  0  0  0  0  0  0  0  0  0
   69.4658  113.4939    5.9553 N   0  0  0  0  0  0  0  0  0  0  0  0
   68.8763  112.6419    6.1002 H   0  0  0  0  0  0  0  0  0  0  0  0
   69.6766  113.9182    4.5614 C   0  0  0  0  0  0  0  0  0  0  0  0
   68.3754  113.7921    3.8048 C   0  0  0  0  0  0  0  0  0  0  0  0
   67.4386  114.6190    3.9978 O   0  0  0  0  0  0  0  0  0  0  0  0
   68.2027  112.7168    2.8714 N   0  0  0  0  0  0  0  0  0  0  0  0
   69.0520  112.1835    2.5751 H   0  0  0  0  0  0  0  0  0  0  0  0
   66.8897  112.1079    2.6300 C   0  0  0  0  0  0  0  0  0  0  0  0
   66.2868  112.6750    1.3673 C   0  0  0  0  0  0  0  0  0  0  0  0
   65.3400  113.5014    1.4499 O   0  0  0  0  0  0  0  0  0  0  0  0
   66.8312  112.3272    0.0809 N   0  0  0  0  0  0  0  0  0  0  0  0
   67.6665  111.6949    0.0695 H   0  0  0  0  0  0  0  0  0  0  0  0
   66.4471  113.0440   -1.1466 C   0  0  0  0  0  0  0  0  0  0  0  0
   65.9949  112.0944   -2.2376 C   0  0  0  0  0  0  0  0  0  0  0  0
   66.1557  110.8531   -2.0824 O   0  0  0  0  0  0  0  0  0  0  0  0
   65.5157  112.5682   -3.5108 N   0  0  0  0  0  0  0  0  0  0  0  0
   65.8318  112.0263   -4.3499 H   0  0  0  0  0  0  0  0  0  0  0  0
   64.3909  113.4976   -3.7229 C   0  0  0  0  0  0  0  0  0  0  0  0
   63.1371  113.0229   -3.0234 C   0  0  0  0  0  0  0  0  0  0  0  0
   62.9716  113.2610   -1.8014 O   0  0  0  0  0  0  0  0  0  0  0  0
   62.1827  112.1894   -3.6952 N   0  0  0  0  0  0  0  0  0  0  0  0
   61.0097  112.7199   -4.3678 C   0  0  0  0  0  0  0  0  0  0  0  0
   60.0647  111.5393   -4.5367 C   0  0  0  0  0  0  0  0  0  0  0  0
   60.9309  110.2932   -4.3659 C   0  0  0  0  0  0  0  0  0  0  0  0
   62.1399  110.7408   -3.5425 C   0  0  0  0  0  0  0  0  0  0  0  0
   61.9863  110.3535   -2.0973 C   0  0  0  0  0  0  0  0  0  0  0  0
   63.1142  110.2002   -1.3038 O   0  0  0  0  0  0  0  0  0  0  0  0
   60.8417  110.1378   -1.6159 O   0  0  0  0  0  0  0  0  0  0  0  0
   63.0333  109.9254   -0.3324 H   0  0  0  0  0  0  0  0  0  0  0  0
   64.7819  114.9411   -3.3457 C   0  0  0  0  0  0  0  0  0  0  0  0
   66.0484  115.6239   -4.4682 S   0  0  0  0  0  0  0  0  0  0  0  0
   65.2904  115.4606   -5.6370 H   0  0  0  0  0  0  0  0  0  0  0  0
   67.6239  113.9193   -1.6294 C   0  0  0  0  0  0  0  0  0  0  0  0
   67.6300  115.2852   -0.9927 C   0  0  0  0  0  0  0  0  0  0  0  0
   68.6952  116.1541   -0.9273 C   0  0  0  0  0  0  0  0  0  0  0  0
   68.3251  117.2577   -0.2492 N   0  0  0  0  0  0  0  0  0  0  0  0
   67.0396  117.0252    0.0925 C   0  0  0  0  0  0  0  0  0  0  0  0
   66.5880  115.8357   -0.3448 N   0  0  0  0  0  0  0  0  0  0  0  0
   65.6479  115.4145   -0.1737 H   0  0  0  0  0  0  0  0  0  0  0  0
   67.0316  110.5762    2.5021 C   0  0  0  0  0  0  0  0  0  0  0  0
   66.0657  109.8181    3.4286 C   0  0  0  0  0  0  0  0  0  0  0  0
   66.4666  108.3756    3.5697 C   0  0  0  0  0  0  0  0  0  0  0  0
   66.8271  107.9316    4.6924 O   0  0  0  0  0  0  0  0  0  0  0  0
   66.4512  107.5056    2.4362 N   0  0  0  0  0  0  0  0  0  0  0  0
   66.6875  106.4940    2.5444 H   0  0  0  0  0  0  0  0  0  0  0  0
   66.2166  107.8630    1.4843 H   0  0  0  0  0  0  0  0  0  0  0  0
   70.8446  113.1764    3.8630 C   0  0  0  0  0  0  0  0  0  0  0  0
   71.1726  111.8309    4.5329 C   0  0  0  0  0  0  0  0  0  0  0  0
   72.6208  111.7537    5.0491 C   0  0  0  0  0  0  0  0  0  0  0  0
   72.7872  112.0117    6.5614 C   0  0  0  0  0  0  0  0  0  0  0  0
   71.6172  111.5918    7.3365 N   0  0  0  0  0  0  0  0  0  0  0  0
   71.5744  110.5449    7.3447 H   0  0  0  0  0  0  0  0  0  0  0  0
   70.7547  111.9439    6.8725 H   0  0  0  0  0  0  0  0  0  0  0  0
   69.3072  113.4395   10.0769 C   0  0  0  0  0  0  0  0  0  0  0  0
   68.5382  112.4442   10.0019 O   0  0  0  0  0  0  0  0  0  0  0  0
   68.9610  114.6610    9.4192 N   0  0  0  0  0  0  0  0  0  0  0  0
   69.1878  115.5687    9.8885 H   0  0  0  0  0  0  0  0  0  0  0  0
   70.6784  113.2878   10.6676 C   0  0  0  0  0  0  0  0  0  0  0  0
   71.2799  111.1756   11.9600 C   0  0  0  0  0  0  0  0  0  0  0  0
   70.7152  110.2082   12.5489 O   0  0  0  0  0  0  0  0  0  0  0  0
   70.5735  112.4227   11.8455 N   0  0  0  0  0  0  0  0  0  0  0  0
   69.7384  112.5381   12.4594 H   0  0  0  0  0  0  0  0  0  0  0  0
   72.7100  111.0415   11.4811 C   0  0  0  0  0  0  0  0  0  0  0  0
   73.8450  109.3581    9.9656 C   0  0  0  0  0  0  0  0  0  0  0  0
   73.9083  110.1975    9.0251 O   0  0  0  0  0  0  0  0  0  0  0  0
   73.0594  109.6569   11.1313 N   0  0  0  0  0  0  0  0  0  0  0  0
   72.7825  108.8632   11.7483 H   0  0  0  0  0  0  0  0  0  0  0  0
   74.6016  108.0531    9.8906 C   0  0  0  0  0  0  0  0  0  0  0  0
   75.3879  107.9957    8.5814 C   0  0  0  0  0  0  0  0  0  0  0  0
   74.0915  105.6799   10.6866 C   0  0  0  0  0  0  0  0  0  0  0  0
   75.2759  105.5263   11.0909 O   0  0  0  0  0  0  0  0  0  0  0  0
   73.7109  106.8846    9.9995 N   0  0  0  0  0  0  0  0  0  0  0  0
   72.7445  106.9164    9.6110 H   0  0  0  0  0  0  0  0  0  0  0  0
   73.0779  104.5886   10.9281 C   0  0  0  0  0  0  0  0  0  0  0  0
   70.5628  104.4441   10.6294 C   0  0  0  0  0  0  0  0  0  0  0  0
   69.7271  104.1184   11.5182 O   0  0  0  0  0  0  0  0  0  0  0  0
   71.7347  105.1702   11.0180 N   0  0  0  0  0  0  0  0  0  0  0  0
   71.5891  105.9078   11.7367 H   0  0  0  0  0  0  0  0  0  0  0  0
   70.2055  104.1901    9.1743 C   0  0  0  0  0  0  0  0  0  0  0  0
   70.5892  106.4746    8.1993 C   0  0  0  0  0  0  0  0  0  0  0  0
   70.5793  107.1568    9.2608 O   0  0  0  0  0  0  0  0  0  0  0  0
   70.9196  105.0830    8.2590 N   0  0  0  0  0  0  0  0  0  0  0  0
   71.7046  104.7314    7.6703 H   0  0  0  0  0  0  0  0  0  0  0  0
   68.7677  107.5483    6.9709 N   0  0  0  0  0  0  0  0  0  0  0  0
   70.1638  107.0987    6.8870 C   0  0  0  0  0  0  0  0  0  0  0  0
   68.4624  107.8535    6.0170 H   0  0  0  0  0  0  0  0  0  0  0  0
   68.1680  106.7269    7.2109 H   0  0  0  0  0  0  0  0  0  0  0  0
   71.1040  108.2515    6.4703 C   0  0  0  0  0  0  0  0  0  0  0  0
   72.1639  108.3292    7.3953 O   0  0  0  0  0  0  0  0  0  0  0  0
   71.6757  108.0653    5.0577 C   0  0  0  0  0  0  0  0  0  0  0  0
   72.5973  109.2105    7.2621 H   0  0  0  0  0  0  0  0  0  0  0  0
   68.6861  104.2680    8.9445 C   0  0  0  0  0  0  0  0  0  0  0  0
   68.2365  103.7721    7.5586 C   0  0  0  0  0  0  0  0  0  0  0  0
   66.8760  103.1230    7.5973 C   0  0  0  0  0  0  0  0  0  0  0  0
   65.8568  103.7169    7.1579 O   0  0  0  0  0  0  0  0  0  0  0  0
   66.7392  101.8055    8.1262 N   0  0  0  0  0  0  0  0  0  0  0  0
   65.8077  101.3386    8.1415 H   0  0  0  0  0  0  0  0  0  0  0  0
   67.5776  101.2745    8.4589 H   0  0  0  0  0  0  0  0  0  0  0  0
   73.3741  103.6648   12.1477 C   0  0  0  0  0  0  0  0  0  0  0  0
   73.2761  104.2818   13.5586 C   0  0  0  0  0  0  0  0  0  0  0  0
   71.9894  104.0427   14.3150 C   0  0  0  0  0  0  0  0  0  0  0  0
   71.0917  104.9201   14.2555 O   0  0  0  0  0  0  0  0  0  0  0  0
   71.7655  102.8876   15.1303 N   0  0  0  0  0  0  0  0  0  0  0  0
   72.5209  102.2138   15.3722 H   0  0  0  0  0  0  0  0  0  0  0  0
   70.8409  102.7601   15.6058 H   0  0  0  0  0  0  0  0  0  0  0  0
   73.6627  111.5848   12.5663 C   0  0  0  0  0  0  0  0  0  0  0  0
   74.8516  112.0689   11.9933 O   0  0  0  0  0  0  0  0  0  0  0  0
   74.6810  113.0195   11.7506 H   0  0  0  0  0  0  0  0  0  0  0  0
   71.2987  114.6477   11.0378 C   0  0  0  0  0  0  0  0  0  0  0  0
   72.7402  114.7022   10.6177 C   0  0  0  0  0  0  0  0  0  0  0  0
   73.3152  113.9832    9.5861 C   0  0  0  0  0  0  0  0  0  0  0  0
   74.6382  114.2452    9.5512 N   0  0  0  0  0  0  0  0  0  0  0  0
   74.8336  115.1207   10.5645 C   0  0  0  0  0  0  0  0  0  0  0  0
   73.6958  115.4226   11.2235 N   0  0  0  0  0  0  0  0  0  0  0  0
   73.5987  116.0515   12.0497 H   0  0  0  0  0  0  0  0  0  0  0  0
 95 96  1  0  0  0
 96 91  1  0  0  0
 91 92  2  0  0  0
 91 93  1  0  0  0
 93 90  1  0  0  0
 90103  1  0  0  0
103104  1  0  0  0
104105  1  0  0  0
105106  2  0  0  0
105107  1  0  0  0
 90 86  1  0  0  0
 86 87  2  0  0  0
 86 88  1  0  0  0
 88 85  1  0  0  0
 85110  1  0  0  0
110111  1  0  0  0
111112  1  0  0  0
112113  2  0  0  0
112114  1  0  0  0
 85 81  1  0  0  0
 81 82  2  0  0  0
 81 83  1  0  0  0
 83 79  1  0  0  0
 79 80  1  0  0  0
 79 75  1  0  0  0
 75 76  2  0  0  0
 75 77  1  0  0  0
 77 74  1  0  0  0
 74117  1  0  0  0
117118  1  0  0  0
 74 70  1  0  0  0
 70 71  2  0  0  0
 70 72  1  0  0  0
 72 69  1  0  0  0
 69120  1  0  0  0
120121  1  0  0  0
121122  2  0  0  0
122123  1  0  0  0
123124  2  0  0  0
124125  1  0  0  0
 69 65  1  0  0  0
 65 66  2  0  0  0
 65 67  1  0  0  0
 67  1  1  0  0  0
  1  2  1  0  0  0
  2  3  2  0  0  0
  3  4  1  0  0  0
  4  5  2  0  0  0
  5  6  1  0  0  0
  5  7  1  0  0  0
  7  8  2  0  0  0
  1 10  1  0  0  0
 10 11  2  0  0  0
 10 12  1  0  0  0
 12 14  1  0  0  0
 14 58  1  0  0  0
 58 59  1  0  0  0
 59 60  1  0  0  0
 60 61  1  0  0  0
 61 62  1  0  0  0
 14 15  1  0  0  0
 15 16  2  0  0  0
 15 17  1  0  0  0
 17 19  1  0  0  0
 19 51  1  0  0  0
 51 52  1  0  0  0
 52 53  1  0  0  0
 53 54  2  0  0  0
 53 55  1  0  0  0
 19 20  1  0  0  0
 20 21  2  0  0  0
 20 22  1  0  0  0
 22 24  1  0  0  0
 24 44  1  0  0  0
 44 45  1  0  0  0
 45 46  2  0  0  0
 46 47  1  0  0  0
 47 48  2  0  0  0
 48 49  1  0  0  0
 24 25  1  0  0  0
 25 26  2  0  0  0
 25 27  1  0  0  0
 27 29  1  0  0  0
 29 41  1  0  0  0
 41 42  1  0  0  0
 29 30  1  0  0  0
 30 31  2  0  0  0
 30 32  1  0  0  0
 32 33  1  0  0  0
 33 34  1  0  0  0
 34 35  1  0  0  0
 35 36  1  0  0  0
 36 37  1  0  0  0
 37 38  1  0  0  0
 37 39  2  0  0  0
 96 99  1  0  0  0
 99100  1  0  0  0
 99101  1  0  0  0
125121  1  0  0  0
  8  2  1  0  0  0
 49 45  1  0  0  0
 36 32  1  0  0  0
 95 97  1  0  0  0
 95 98  1  0  0  0
 93 94  1  0  0  0
107108  1  0  0  0
107109  1  0  0  0
 88 89  1  0  0  0
114115  1  0  0  0
114116  1  0  0  0
 83 84  1  0  0  0
 77 78  1  0  0  0
118119  1  0  0  0
 72 73  1  0  0  0
125126  1  0  0  0
 67 68  1  0  0  0
  6  9  1  0  0  0
 12 13  1  0  0  0
 62 63  1  0  0  0
 62 64  1  0  0  0
 17 18  1  0  0  0
 55 56  1  0  0  0
 55 57  1  0  0  0
 22 23  1  0  0  0
 49 50  1  0  0  0
 27 28  1  0  0  0
 42 43  1  0  0  0
 38 40  1  0  0  0
100102  1  0  0  0
M  END
> <minimizedAffinity>
-7.66578

$$$$



126129  0  0  0  0  0  0  0  0999 V2000
   39.3072  112.9683   27.9009 C   0  0  0  0  0  0  0  0  0  0  0  0
   38.4757  113.3842   26.7096 C   0  0  0  0  0  0  0  0  0  0  0  0
   37.7750  112.4315   25.9481 C   0  0  0  0  0  0  0  0  0  0  0  0
   36.9705  112.8339   24.8794 C   0  0  0  0  0  0  0  0  0  0  0  0
   36.8701  114.1898   24.5433 C   0  0  0  0  0  0  0  0  0  0  0  0
   36.0623  114.5818   23.4766 O   0  0  0  0  0  0  0  0  0  0  0  0
   37.5771  115.1431   25.2858 C   0  0  0  0  0  0  0  0  0  0  0  0
   38.3672  114.7417   26.3680 C   0  0  0  0  0  0  0  0  0  0  0  0
   36.0090  115.5514   23.1870 H   0  0  0  0  0  0  0  0  0  0  0  0
   38.8518  111.6329   28.4287 C   0  0  0  0  0  0  0  0  0  0  0  0
   39.1190  110.5733   27.8032 O   0  0  0  0  0  0  0  0  0  0  0  0
   38.0708  111.5702   29.6299 N   0  0  0  0  0  0  0  0  0  0  0  0
   38.3724  112.1863   30.4198 H   0  0  0  0  0  0  0  0  0  0  0  0
   36.7059  111.0238   29.7065 C   0  0  0  0  0  0  0  0  0  0  0  0
   36.7831  109.5264   29.8889 C   0  0  0  0  0  0  0  0  0  0  0  0
   35.7527  108.8084   29.7423 O   0  0  0  0  0  0  0  0  0  0  0  0
   38.0346  108.9219   30.2434 N   0  0  0  0  0  0  0  0  0  0  0  0
   38.9019  109.4985   30.1493 H   0  0  0  0  0  0  0  0  0  0  0  0
   38.1002  107.7118   31.0708 C   0  0  0  0  0  0  0  0  0  0  0  0
   39.3872  106.9723   30.7951 C   0  0  0  0  0  0  0  0  0  0  0  0
   39.6349  105.9063   31.4185 O   0  0  0  0  0  0  0  0  0  0  0  0
   40.2943  107.4432   29.7813 N   0  0  0  0  0  0  0  0  0  0  0  0
   40.0071  108.2921   29.2387 H   0  0  0  0  0  0  0  0  0  0  0  0
   41.4225  106.6253   29.3054 C   0  0  0  0  0  0  0  0  0  0  0  0
   42.7461  107.1095   29.8622 C   0  0  0  0  0  0  0  0  0  0  0  0
   42.8765  108.3234   30.1788 O   0  0  0  0  0  0  0  0  0  0  0  0
   43.9093  106.2612   29.9105 N   0  0  0  0  0  0  0  0  0  0  0  0
   44.8194  106.7169   29.6622 H   0  0  0  0  0  0  0  0  0  0  0  0
   43.9997  104.9504   30.5796 C   0  0  0  0  0  0  0  0  0  0  0  0
   45.4352  104.5659   30.8590 C   0  0  0  0  0  0  0  0  0  0  0  0
   45.8198  104.3922   32.0420 O   0  0  0  0  0  0  0  0  0  0  0  0
   46.4091  104.5189   29.8073 N   0  0  0  0  0  0  0  0  0  0  0  0
   46.7415  103.2968   29.0960 C   0  0  0  0  0  0  0  0  0  0  0  0
   48.0783  103.5658   28.4209 C   0  0  0  0  0  0  0  0  0  0  0  0
   48.2284  105.0854   28.3996 C   0  0  0  0  0  0  0  0  0  0  0  0
   47.3435  105.6034   29.5347 C   0  0  0  0  0  0  0  0  0  0  0  0
   48.1608  105.9323   30.7538 C   0  0  0  0  0  0  0  0  0  0  0  0
   47.7026  106.8864   31.6509 O   0  0  0  0  0  0  0  0  0  0  0  0
   49.2717  105.3684   30.9445 O   0  0  0  0  0  0  0  0  0  0  0  0
   48.2449  107.1332   32.4699 H   0  0  0  0  0  0  0  0  0  0  0  0
   43.1075  104.9038   31.8369 C   0  0  0  0  0  0  0  0  0  0  0  0
   42.1757  103.3394   31.9587 S   0  0  0  0  0  0  0  0  0  0  0  0
   43.3078  102.5113   31.9576 H   0  0  0  0  0  0  0  0  0  0  0  0
   41.4439  106.6142   27.7616 C   0  0  0  0  0  0  0  0  0  0  0  0
   41.4136  105.2195   27.1912 C   0  0  0  0  0  0  0  0  0  0  0  0
   41.3296  104.0447   27.9031 C   0  0  0  0  0  0  0  0  0  0  0  0
   41.3662  103.0052   27.0472 N   0  0  0  0  0  0  0  0  0  0  0  0
   41.4839  103.5777   25.8300 C   0  0  0  0  0  0  0  0  0  0  0  0
   41.5150  104.9217   25.8837 N   0  0  0  0  0  0  0  0  0  0  0  0
   41.6403  105.5836   25.0859 H   0  0  0  0  0  0  0  0  0  0  0  0
   38.0203  108.0873   32.5658 C   0  0  0  0  0  0  0  0  0  0  0  0
   38.6713  109.4486   32.8646 C   0  0  0  0  0  0  0  0  0  0  0  0
   40.0036  109.2779   33.5407 C   0  0  0  0  0  0  0  0  0  0  0  0
   41.0609  109.5940   32.9326 O   0  0  0  0  0  0  0  0  0  0  0  0
   40.0804  108.7501   34.8665 N   0  0  0  0  0  0  0  0  0  0  0  0
   41.0025  108.6732   35.3511 H   0  0  0  0  0  0  0  0  0  0  0  0
   39.2257  108.4232   35.3678 H   0  0  0  0  0  0  0  0  0  0  0  0
   35.8123  111.4313   28.5074 C   0  0  0  0  0  0  0  0  0  0  0  0
   34.8368  112.5677   28.8590 C   0  0  0  0  0  0  0  0  0  0  0  0
   35.2575  113.9254   28.2680 C   0  0  0  0  0  0  0  0  0  0  0  0
   34.1711  114.6371   27.4346 C   0  0  0  0  0  0  0  0  0  0  0  0
   33.2888  113.6970   26.7391 N   0  0  0  0  0  0  0  0  0  0  0  0
   32.6786  113.2199   27.4448 H   0  0  0  0  0  0  0  0  0  0  0  0
   33.8658  112.9688   26.2702 H   0  0  0  0  0  0  0  0  0  0  0  0
   41.6622  113.7733   28.2370 C   0  0  0  0  0  0  0  0  0  0  0  0
   41.4117  114.9976   28.3975 O   0  0  0  0  0  0  0  0  0  0  0  0
   40.7296  112.9377   27.5467 N   0  0  0  0  0  0  0  0  0  0  0  0
   41.0956  112.1861   26.9168 H   0  0  0  0  0  0  0  0  0  0  0  0
   42.8242  113.1437   28.9480 C   0  0  0  0  0  0  0  0  0  0  0  0
   45.2691  113.3772   28.2681 C   0  0  0  0  0  0  0  0  0  0  0  0
   45.9711  113.8627   27.3338 O   0  0  0  0  0  0  0  0  0  0  0  0
   43.9157  112.9839   27.9835 N   0  0  0  0  0  0  0  0  0  0  0  0
   43.6632  112.8950   26.9756 H   0  0  0  0  0  0  0  0  0  0  0  0
   45.8857  113.1253   29.6278 C   0  0  0  0  0  0  0  0  0  0  0  0
   46.9799  114.3567   31.5528 C   0  0  0  0  0  0  0  0  0  0  0  0
   46.5209  113.5285   32.3873 O   0  0  0  0  0  0  0  0  0  0  0  0
   46.5108  114.3293   30.1947 N   0  0  0  0  0  0  0  0  0  0  0  0
   46.6690  115.1766   29.6078 H   0  0  0  0  0  0  0  0  0  0  0  0
   48.0318  115.3618   31.9583 C   0  0  0  0  0  0  0  0  0  0  0  0
   48.0188  116.5347   30.9787 C   0  0  0  0  0  0  0  0  0  0  0  0
   50.1051  114.3682   30.8447 C   0  0  0  0  0  0  0  0  0  0  0  0
   49.5416  114.3737   29.7168 O   0  0  0  0  0  0  0  0  0  0  0  0
   49.3781  114.7666   32.0199 N   0  0  0  0  0  0  0  0  0  0  0  0
   49.8678  114.6561   32.9330 H   0  0  0  0  0  0  0  0  0  0  0  0
   51.5476  113.9385   30.9511 C   0  0  0  0  0  0  0  0  0  0  0  0
   52.9172  111.8762   30.3969 C   0  0  0  0  0  0  0  0  0  0  0  0
   53.3788  111.0460   31.2289 O   0  0  0  0  0  0  0  0  0  0  0  0
   51.6592  112.5028   30.6740 N   0  0  0  0  0  0  0  0  0  0  0  0
   50.9312  111.8862   31.0882 H   0  0  0  0  0  0  0  0  0  0  0  0
   53.6397  112.0480   29.0711 C   0  0  0  0  0  0  0  0  0  0  0  0
   53.2414  110.3979   27.2175 C   0  0  0  0  0  0  0  0  0  0  0  0
   53.2441  111.1878   26.2334 O   0  0  0  0  0  0  0  0  0  0  0  0
   53.9250  110.7676   28.4197 N   0  0  0  0  0  0  0  0  0  0  0  0
   54.6569  110.1267   28.7940 H   0  0  0  0  0  0  0  0  0  0  0  0
   53.2566  108.0382   26.5762 N   0  0  0  0  0  0  0  0  0  0  0  0
   52.4434  109.1123   27.1621 C   0  0  0  0  0  0  0  0  0  0  0  0
   52.6426  107.2027   26.4305 H   0  0  0  0  0  0  0  0  0  0  0  0
   53.5617  108.3352   25.6219 H   0  0  0  0  0  0  0  0  0  0  0  0
   51.9011  108.7150   28.5530 C   0  0  0  0  0  0  0  0  0  0  0  0
   50.9303  109.6569   28.9472 O   0  0  0  0  0  0  0  0  0  0  0  0
   51.2803  107.3109   28.5652 C   0  0  0  0  0  0  0  0  0  0  0  0
   50.7894  109.5341   29.9205 H   0  0  0  0  0  0  0  0  0  0  0  0
   54.9233  112.8809   29.2318 C   0  0  0  0  0  0  0  0  0  0  0  0
   55.2977  113.7008   27.9842 C   0  0  0  0  0  0  0  0  0  0  0  0
   56.3455  113.0160   27.1433 C   0  0  0  0  0  0  0  0  0  0  0  0
   56.5525  111.7781   27.2389 O   0  0  0  0  0  0  0  0  0  0  0  0
   57.1078  113.7785   26.2096 N   0  0  0  0  0  0  0  0  0  0  0  0
   57.8219  113.3141   25.6093 H   0  0  0  0  0  0  0  0  0  0  0  0
   56.9257  114.8012   26.0812 H   0  0  0  0  0  0  0  0  0  0  0  0
   52.2546  114.3103   32.2891 C   0  0  0  0  0  0  0  0  0  0  0  0
   52.8677  115.7210   32.4116 C   0  0  0  0  0  0  0  0  0  0  0  0
   53.7682  116.1690   31.2832 C   0  0  0  0  0  0  0  0  0  0  0  0
   54.9370  115.7099   31.2358 O   0  0  0  0  0  0  0  0  0  0  0  0
   53.3667  117.1243   30.2956 N   0  0  0  0  0  0  0  0  0  0  0  0
   52.4894  117.6788   30.3721 H   0  0  0  0  0  0  0  0  0  0  0  0
   54.0229  117.3726   29.5177 H   0  0  0  0  0  0  0  0  0  0  0  0
   46.9141  111.9806   29.5157 C   0  0  0  0  0  0  0  0  0  0  0  0
   46.4552  110.8276   30.1762 O   0  0  0  0  0  0  0  0  0  0  0  0
   45.9087  110.3223   29.5147 H   0  0  0  0  0  0  0  0  0  0  0  0
   42.4472  111.7914   29.5805 C   0  0  0  0  0  0  0  0  0  0  0  0
   42.9731  111.7008   30.9851 C   0  0  0  0  0  0  0  0  0  0  0  0
   42.7985  112.6430   31.9820 C   0  0  0  0  0  0  0  0  0  0  0  0
   43.4668  112.2457   33.0846 N   0  0  0  0  0  0  0  0  0  0  0  0
   44.0307  111.0680   32.7289 C   0  0  0  0  0  0  0  0  0  0  0  0
   43.7397  110.7087   31.4615 N   0  0  0  0  0  0  0  0  0  0  0  0
   44.0765  109.8597   30.9584 H   0  0  0  0  0  0  0  0  0  0  0  0
 95 96  1  0  0  0
 96 91  1  0  0  0
 91 92  2  0  0  0
 91 93  1  0  0  0
 93 90  1  0  0  0
 90103  1  0  0  0
103104  1  0  0  0
104105  1  0  0  0
105106  2  0  0  0
105107  1  0  0  0
 90 86  1  0  0  0
 86 87  2  0  0  0
 86 88  1  0  0  0
 88 85  1  0  0  0
 85110  1  0  0  0
110111  1  0  0  0
111112  1  0  0  0
112113  2  0  0  0
112114  1  0  0  0
 85 81  1  0  0  0
 81 82  2  0  0  0
 81 83  1  0  0  0
 83 79  1  0  0  0
 79 80  1  0  0  0
 79 75  1  0  0  0
 75 76  2  0  0  0
 75 77  1  0  0  0
 77 74  1  0  0  0
 74117  1  0  0  0
117118  1  0  0  0
 74 70  1  0  0  0
 70 71  2  0  0  0
 70 72  1  0  0  0
 72 69  1  0  0  0
 69120  1  0  0  0
120121  1  0  0  0
121122  2  0  0  0
122123  1  0  0  0
123124  2  0  0  0
124125  1  0  0  0
 69 65  1  0  0  0
 65 66  2  0  0  0
 65 67  1  0  0  0
 67  1  1  0  0  0
  1  2  1  0  0  0
  2  3  2  0  0  0
  3  4  1  0  0  0
  4  5  2  0  0  0
  5  6  1  0  0  0
  5  7  1  0  0  0
  7  8  2  0  0  0
  1 10  1  0  0  0
 10 11  2  0  0  0
 10 12  1  0  0  0
 12 14  1  0  0  0
 14 58  1  0  0  0
 58 59  1  0  0  0
 59 60  1  0  0  0
 60 61  1  0  0  0
 61 62  1  0  0  0
 14 15  1  0  0  0
 15 16  2  0  0  0
 15 17  1  0  0  0
 17 19  1  0  0  0
 19 51  1  0  0  0
 51 52  1  0  0  0
 52 53  1  0  0  0
 53 54  2  0  0  0
 53 55  1  0  0  0
 19 20  1  0  0  0
 20 21  2  0  0  0
 20 22  1  0  0  0
 22 24  1  0  0  0
 24 44  1  0  0  0
 44 45  1  0  0  0
 45 46  2  0  0  0
 46 47  1  0  0  0
 47 48  2  0  0  0
 48 49  1  0  0  0
 24 25  1  0  0  0
 25 26  2  0  0  0
 25 27  1  0  0  0
 27 29  1  0  0  0
 29 41  1  0  0  0
 41 42  1  0  0  0
 29 30  1  0  0  0
 30 31  2  0  0  0
 30 32  1  0  0  0
 32 33  1  0  0  0
 33 34  1  0  0  0
 34 35  1  0  0  0
 35 36  1  0  0  0
 36 37  1  0  0  0
 37 38  1  0  0  0
 37 39  2  0  0  0
 96 99  1  0  0  0
 99100  1  0  0  0
 99101  1  0  0  0
125121  1  0  0  0
  8  2  1  0  0  0
 49 45  1  0  0  0
 36 32  1  0  0  0
 95 97  1  0  0  0
 95 98  1  0  0  0
 93 94  1  0  0  0
107108  1  0  0  0
107109  1  0  0  0
 88 89  1  0  0  0
114115  1  0  0  0
114116  1  0  0  0
 83 84  1  0  0  0
 77 78  1  0  0  0
118119  1  0  0  0
 72 73  1  0  0  0
125126  1  0  0  0
 67 68  1  0  0  0
  6  9  1  0  0  0
 12 13  1  0  0  0
 62 63  1  0  0  0
 62 64  1  0  0  0
 17 18  1  0  0  0
 55 56  1  0  0  0
 55 57  1  0  0  0
 22 23  1  0  0  0
 49 50  1  0  0  0
 27 28  1  0  0  0
 42 43  1  0  0  0
 38 40  1  0  0  0
100102  1  0  0  0
M  END
> <minimizedAffinity>
-7.52269

$$$$



126129  0  0  0  0  0  0  0  0999 V2000
   68.5471  114.6197    8.0567 C   0  0  0  0  0  0  0  0  0  0  0  0
   67.9389  115.9512    7.6811 C   0  0  0  0  0  0  0  0  0  0  0  0
   68.7135  116.9542    7.0709 C   0  0  0  0  0  0  0  0  0  0  0  0
   68.1280  118.1620    6.6839 C   0  0  0  0  0  0  0  0  0  0  0  0
   66.7668  118.3934    6.9186 C   0  0  0  0  0  0  0  0  0  0  0  0
   66.1910  119.6011    6.5260 O   0  0  0  0  0  0  0  0  0  0  0  0
   65.9921  117.4068    7.5403 C   0  0  0  0  0  0  0  0  0  0  0  0
   66.5744  116.1899    7.9101 C   0  0  0  0  0  0  0  0  0  0  0  0
   65.2194  119.8087    6.7253 H   0  0  0  0  0  0  0  0  0  0  0  0
   69.7122  114.2938    7.1592 C   0  0  0  0  0  0  0  0  0  0  0  0
   70.8625  114.7350    7.4191 O   0  0  0  0  0  0  0  0  0  0  0  0
   69.5029  113.5110    5.9758 N   0  0  0  0  0  0  0  0  0  0  0  0
   68.8743  112.6798    6.0667 H   0  0  0  0  0  0  0  0  0  0  0  0
   69.7758  113.9825    4.6081 C   0  0  0  0  0  0  0  0  0  0  0  0
   68.4651  114.1917    3.8873 C   0  0  0  0  0  0  0  0  0  0  0  0
   67.5804  114.9534    4.3730 O   0  0  0  0  0  0  0  0  0  0  0  0
   68.2231  113.5085    2.6495 N   0  0  0  0  0  0  0  0  0  0  0  0
   69.0373  113.0623    2.1684 H   0  0  0  0  0  0  0  0  0  0  0  0
   66.8747  113.0899    2.2499 C   0  0  0  0  0  0  0  0  0  0  0  0
   66.3618  113.9936    1.1547 C   0  0  0  0  0  0  0  0  0  0  0  0
   65.1280  114.0233    0.9031 O   0  0  0  0  0  0  0  0  0  0  0  0
   67.2639  114.8642    0.4473 N   0  0  0  0  0  0  0  0  0  0  0  0
   68.2684  114.8570    0.7450 H   0  0  0  0  0  0  0  0  0  0  0  0
   66.7779  115.9340   -0.4402 C   0  0  0  0  0  0  0  0  0  0  0  0
   67.1064  115.6557   -1.8932 C   0  0  0  0  0  0  0  0  0  0  0  0
   68.1114  116.2094   -2.4167 O   0  0  0  0  0  0  0  0  0  0  0  0
   66.2282  114.8902   -2.7406 N   0  0  0  0  0  0  0  0  0  0  0  0
   66.1135  115.2439   -3.7201 H   0  0  0  0  0  0  0  0  0  0  0  0
   65.7572  113.5165   -2.4859 C   0  0  0  0  0  0  0  0  0  0  0  0
   64.2472  113.4425   -2.4551 C   0  0  0  0  0  0  0  0  0  0  0  0
   63.5718  114.4812   -2.2490 O   0  0  0  0  0  0  0  0  0  0  0  0
   63.5641  112.1836   -2.5285 N   0  0  0  0  0  0  0  0  0  0  0  0
   63.0702  111.6274   -3.7761 C   0  0  0  0  0  0  0  0  0  0  0  0
   62.0527  110.5681   -3.3786 C   0  0  0  0  0  0  0  0  0  0  0  0
   62.3467  110.2461   -1.9150 C   0  0  0  0  0  0  0  0  0  0  0  0
   63.0609  111.4783   -1.3568 C   0  0  0  0  0  0  0  0  0  0  0  0
   62.1158  112.3435   -0.5690 C   0  0  0  0  0  0  0  0  0  0  0  0
   62.6082  113.4301    0.1395 O   0  0  0  0  0  0  0  0  0  0  0  0
   60.8872  112.0659   -0.5257 O   0  0  0  0  0  0  0  0  0  0  0  0
   61.9910  114.0163    0.6882 H   0  0  0  0  0  0  0  0  0  0  0  0
   66.3895  112.5178   -3.4767 C   0  0  0  0  0  0  0  0  0  0  0  0
   66.8869  113.3222   -5.0374 S   0  0  0  0  0  0  0  0  0  0  0  0
   67.7519  114.2494   -4.4379 H   0  0  0  0  0  0  0  0  0  0  0  0
   67.3639  117.2902    0.0083 C   0  0  0  0  0  0  0  0  0  0  0  0
   66.3249  118.3805    0.0651 C   0  0  0  0  0  0  0  0  0  0  0  0
   65.2532  118.5362   -0.7842 C   0  0  0  0  0  0  0  0  0  0  0  0
   64.5727  119.6462   -0.4389 N   0  0  0  0  0  0  0  0  0  0  0  0
   65.2589  120.1466    0.6109 C   0  0  0  0  0  0  0  0  0  0  0  0
   66.3284  119.4003    0.9417 N   0  0  0  0  0  0  0  0  0  0  0  0
   67.0329  119.6000    1.6861 H   0  0  0  0  0  0  0  0  0  0  0  0
   66.8985  111.6277    1.7561 C   0  0  0  0  0  0  0  0  0  0  0  0
   68.2894  111.1990    1.2584 C   0  0  0  0  0  0  0  0  0  0  0  0
   68.3565  111.2080   -0.2438 C   0  0  0  0  0  0  0  0  0  0  0  0
   67.7922  110.2941   -0.9026 O   0  0  0  0  0  0  0  0  0  0  0  0
   69.0646  112.2418   -0.9308 N   0  0  0  0  0  0  0  0  0  0  0  0
   69.0733  112.2712   -1.9749 H   0  0  0  0  0  0  0  0  0  0  0  0
   69.5919  112.9746   -0.4077 H   0  0  0  0  0  0  0  0  0  0  0  0
   70.7459  113.0633    3.8230 C   0  0  0  0  0  0  0  0  0  0  0  0
   72.1653  113.0612    4.4162 C   0  0  0  0  0  0  0  0  0  0  0  0
   72.6613  111.6509    4.7833 C   0  0  0  0  0  0  0  0  0  0  0  0
   72.9757  111.4406    6.2794 C   0  0  0  0  0  0  0  0  0  0  0  0
   71.8079  111.6592    7.1364 N   0  0  0  0  0  0  0  0  0  0  0  0
   71.1298  110.8736    6.9915 H   0  0  0  0  0  0  0  0  0  0  0  0
   71.3378  112.5441    6.8555 H   0  0  0  0  0  0  0  0  0  0  0  0
   69.2209  113.3888   10.1394 C   0  0  0  0  0  0  0  0  0  0  0  0
   68.4036  112.4336   10.0551 O   0  0  0  0  0  0  0  0  0  0  0  0
   68.9516  114.6210    9.4660 N   0  0  0  0  0  0  0  0  0  0  0  0
   69.2148  115.5197    9.9335 H   0  0  0  0  0  0  0  0  0  0  0  0
   70.5699  113.1721   10.7602 C   0  0  0  0  0  0  0  0  0  0  0  0
   71.1966  111.3145   12.3882 C   0  0  0  0  0  0  0  0  0  0  0  0
   70.6596  110.3540   13.0130 O   0  0  0  0  0  0  0  0  0  0  0  0
   70.3813  112.4382   12.0144 N   0  0  0  0  0  0  0  0  0  0  0  0
   69.4534  112.5120   12.4848 H   0  0  0  0  0  0  0  0  0  0  0  0
   72.6896  111.3150   12.1361 C   0  0  0  0  0  0  0  0  0  0  0  0
   73.8482  109.8346   10.4376 C   0  0  0  0  0  0  0  0  0  0  0  0
   73.6637  110.6836    9.5222 O   0  0  0  0  0  0  0  0  0  0  0  0
   73.1882  110.0014   11.7033 N   0  0  0  0  0  0  0  0  0  0  0  0
   73.1142  109.1690   12.3271 H   0  0  0  0  0  0  0  0  0  0  0  0
   74.7707  108.6574   10.2270 C   0  0  0  0  0  0  0  0  0  0  0  0
   75.8269  109.0194    9.1835 C   0  0  0  0  0  0  0  0  0  0  0  0
   73.2898  106.6391   10.7362 C   0  0  0  0  0  0  0  0  0  0  0  0
   73.3565  106.8621   11.9754 O   0  0  0  0  0  0  0  0  0  0  0  0
   74.0429  107.4451    9.8134 N   0  0  0  0  0  0  0  0  0  0  0  0
   74.0179  107.1572    8.8122 H   0  0  0  0  0  0  0  0  0  0  0  0
   72.4148  105.5188   10.2301 C   0  0  0  0  0  0  0  0  0  0  0  0
   69.9428  104.9507   10.1816 C   0  0  0  0  0  0  0  0  0  0  0  0
   69.3528  104.1375   10.9465 O   0  0  0  0  0  0  0  0  0  0  0  0
   71.0392  105.7130   10.6998 N   0  0  0  0  0  0  0  0  0  0  0  0
   70.9197  106.0714   11.6689 H   0  0  0  0  0  0  0  0  0  0  0  0
   69.3593  105.1961    8.8000 C   0  0  0  0  0  0  0  0  0  0  0  0
   67.8094  103.7575    7.4416 C   0  0  0  0  0  0  0  0  0  0  0  0
   67.3907  104.6210    6.6222 O   0  0  0  0  0  0  0  0  0  0  0  0
   69.0739  103.9506    8.0842 N   0  0  0  0  0  0  0  0  0  0  0  0
   69.7974  103.2057    7.9944 H   0  0  0  0  0  0  0  0  0  0  0  0
   65.5230  102.9094    7.6235 N   0  0  0  0  0  0  0  0  0  0  0  0
   66.9407  102.5746    7.8142 C   0  0  0  0  0  0  0  0  0  0  0  0
   64.9452  102.1263    8.0096 H   0  0  0  0  0  0  0  0  0  0  0  0
   65.2969  103.7440    8.2101 H   0  0  0  0  0  0  0  0  0  0  0  0
   67.3323  101.3059    7.0244 C   0  0  0  0  0  0  0  0  0  0  0  0
   66.1661  100.5642    6.7507 O   0  0  0  0  0  0  0  0  0  0  0  0
   68.0491  101.6295    5.7059 C   0  0  0  0  0  0  0  0  0  0  0  0
   66.4595   99.6566    6.4814 H   0  0  0  0  0  0  0  0  0  0  0  0
   70.2624  106.1173    7.9616 C   0  0  0  0  0  0  0  0  0  0  0  0
   69.7891  107.5811    7.9118 C   0  0  0  0  0  0  0  0  0  0  0  0
   70.8894  108.5500    8.2646 C   0  0  0  0  0  0  0  0  0  0  0  0
   72.0520  108.4142    7.8015 O   0  0  0  0  0  0  0  0  0  0  0  0
   70.6083  109.6513    9.1263 N   0  0  0  0  0  0  0  0  0  0  0  0
   71.3551  110.3385    9.3628 H   0  0  0  0  0  0  0  0  0  0  0  0
   69.6400  109.8100    9.4906 H   0  0  0  0  0  0  0  0  0  0  0  0
   72.9224  104.0814   10.5534 C   0  0  0  0  0  0  0  0  0  0  0  0
   72.7059  102.9852    9.4893 C   0  0  0  0  0  0  0  0  0  0  0  0
   72.6196  101.5617    9.9906 C   0  0  0  0  0  0  0  0  0  0  0  0
   73.2045  100.6630    9.3354 O   0  0  0  0  0  0  0  0  0  0  0  0
   71.8663  101.1855   11.1483 N   0  0  0  0  0  0  0  0  0  0  0  0
   71.2148  101.8367   11.6325 H   0  0  0  0  0  0  0  0  0  0  0  0
   71.8694  100.1876   11.4669 H   0  0  0  0  0  0  0  0  0  0  0  0
   73.4208  111.7801   13.4127 C   0  0  0  0  0  0  0  0  0  0  0  0
   72.5241  112.3800   14.3139 O   0  0  0  0  0  0  0  0  0  0  0  0
   72.1473  111.6440   14.8688 H   0  0  0  0  0  0  0  0  0  0  0  0
   71.3097  114.4999   11.0062 C   0  0  0  0  0  0  0  0  0  0  0  0
   72.5945  114.5403   10.2281 C   0  0  0  0  0  0  0  0  0  0  0  0
   73.5565  115.5312   10.2961 C   0  0  0  0  0  0  0  0  0  0  0  0
   74.5342  115.2568    9.4078 N   0  0  0  0  0  0  0  0  0  0  0  0
   74.1409  114.1019    8.8222 C   0  0  0  0  0  0  0  0  0  0  0  0
   72.9702  113.6397    9.3079 N   0  0  0  0  0  0  0  0  0  0  0  0
   72.4576  112.7857    8.9990 H   0  0  0  0  0  0  0  0  0  0  0  0
 95 96  1  0  0  0
 96 91  1  0  0  0
 91 92  2  0  0  0
 91 93  1  0  0  0
 93 90  1  0  0  0
 90103  1  0  0  0
103104  1  0  0  0
104105  1  0  0  0
105106  2  0  0  0
105107  1  0  0  0
 90 86  1  0  0  0
 86 87  2  0  0  0
 86 88  1  0  0  0
 88 85  1  0  0  0
 85110  1  0  0  0
110111  1  0  0  0
111112  1  0  0  0
112113  2  0  0  0
112114  1  0  0  0
 85 81  1  0  0  0
 81 82  2  0  0  0
 81 83  1  0  0  0
 83 79  1  0  0  0
 79 80  1  0  0  0
 79 75  1  0  0  0
 75 76  2  0  0  0
 75 77  1  0  0  0
 77 74  1  0  0  0
 74117  1  0  0  0
117118  1  0  0  0
 74 70  1  0  0  0
 70 71  2  0  0  0
 70 72  1  0  0  0
 72 69  1  0  0  0
 69120  1  0  0  0
120121  1  0  0  0
121122  2  0  0  0
122123  1  0  0  0
123124  2  0  0  0
124125  1  0  0  0
 69 65  1  0  0  0
 65 66  2  0  0  0
 65 67  1  0  0  0
 67  1  1  0  0  0
  1  2  1  0  0  0
  2  3  2  0  0  0
  3  4  1  0  0  0
  4  5  2  0  0  0
  5  6  1  0  0  0
  5  7  1  0  0  0
  7  8  2  0  0  0
  1 10  1  0  0  0
 10 11  2  0  0  0
 10 12  1  0  0  0
 12 14  1  0  0  0
 14 58  1  0  0  0
 58 59  1  0  0  0
 59 60  1  0  0  0
 60 61  1  0  0  0
 61 62  1  0  0  0
 14 15  1  0  0  0
 15 16  2  0  0  0
 15 17  1  0  0  0
 17 19  1  0  0  0
 19 51  1  0  0  0
 51 52  1  0  0  0
 52 53  1  0  0  0
 53 54  2  0  0  0
 53 55  1  0  0  0
 19 20  1  0  0  0
 20 21  2  0  0  0
 20 22  1  0  0  0
 22 24  1  0  0  0
 24 44  1  0  0  0
 44 45  1  0  0  0
 45 46  2  0  0  0
 46 47  1  0  0  0
 47 48  2  0  0  0
 48 49  1  0  0  0
 24 25  1  0  0  0
 25 26  2  0  0  0
 25 27  1  0  0  0
 27 29  1  0  0  0
 29 41  1  0  0  0
 41 42  1  0  0  0
 29 30  1  0  0  0
 30 31  2  0  0  0
 30 32  1  0  0  0
 32 33  1  0  0  0
 33 34  1  0  0  0
 34 35  1  0  0  0
 35 36  1  0  0  0
 36 37  1  0  0  0
 37 38  1  0  0  0
 37 39  2  0  0  0
 96 99  1  0  0  0
 99100  1  0  0  0
 99101  1  0  0  0
125121  1  0  0  0
  8  2  1  0  0  0
 49 45  1  0  0  0
 36 32  1  0  0  0
 95 97  1  0  0  0
 95 98  1  0  0  0
 93 94  1  0  0  0
107108  1  0  0  0
107109  1  0  0  0
 88 89  1  0  0  0
114115  1  0  0  0
114116  1  0  0  0
 83 84  1  0  0  0
 77 78  1  0  0  0
118119  1  0  0  0
 72 73  1  0  0  0
125126  1  0  0  0
 67 68  1  0  0  0
  6  9  1  0  0  0
 12 13  1  0  0  0
 62 63  1  0  0  0
 62 64  1  0  0  0
 17 18  1  0  0  0
 55 56  1  0  0  0
 55 57  1  0  0  0
 22 23  1  0  0  0
 49 50  1  0  0  0
 27 28  1  0  0  0
 42 43  1  0  0  0
 38 40  1  0  0  0
100102  1  0  0  0
M  END
> <minimizedAffinity>
-7.48309

$$$$



126129  0  0  0  0  0  0  0  0999 V2000
   44.2878  109.8313   31.0815 C   0  0  0  0  0  0  0  0  0  0  0  0
   44.1756  108.6833   32.0577 C   0  0  0  0  0  0  0  0  0  0  0  0
   45.2509  108.3388   32.8963 C   0  0  0  0  0  0  0  0  0  0  0  0
   45.1177  107.3073   33.8288 C   0  0  0  0  0  0  0  0  0  0  0  0
   43.9170  106.5924   33.9234 C   0  0  0  0  0  0  0  0  0  0  0  0
   43.7928  105.5664   34.8594 O   0  0  0  0  0  0  0  0  0  0  0  0
   42.8471  106.9181   33.0813 C   0  0  0  0  0  0  0  0  0  0  0  0
   42.9744  107.9639   32.1610 C   0  0  0  0  0  0  0  0  0  0  0  0
   42.9501  105.0064   34.9158 H   0  0  0  0  0  0  0  0  0  0  0  0
   43.5806  111.0518   31.6103 C   0  0  0  0  0  0  0  0  0  0  0  0
   43.4406  111.2227   32.8499 O   0  0  0  0  0  0  0  0  0  0  0  0
   43.0243  112.0055   30.6950 N   0  0  0  0  0  0  0  0  0  0  0  0
   43.6100  112.2590   29.8661 H   0  0  0  0  0  0  0  0  0  0  0  0
   41.5949  112.3500   30.6202 C   0  0  0  0  0  0  0  0  0  0  0  0
   40.7777  111.0809   30.6741 C   0  0  0  0  0  0  0  0  0  0  0  0
   40.2341  110.7135   31.7549 O   0  0  0  0  0  0  0  0  0  0  0  0
   40.6315  110.2845   29.4901 N   0  0  0  0  0  0  0  0  0  0  0  0
   40.9041  110.7114   28.5752 H   0  0  0  0  0  0  0  0  0  0  0  0
   40.4942  108.8250   29.5539 C   0  0  0  0  0  0  0  0  0  0  0  0
   39.0749  108.4598   29.9166 C   0  0  0  0  0  0  0  0  0  0  0  0
   38.8435  107.3571   30.4794 O   0  0  0  0  0  0  0  0  0  0  0  0
   38.0016  109.3902   29.6828 N   0  0  0  0  0  0  0  0  0  0  0  0
   38.2562  110.3239   29.2814 H   0  0  0  0  0  0  0  0  0  0  0  0
   36.6568  109.1849   30.2462 C   0  0  0  0  0  0  0  0  0  0  0  0
   35.5701  109.4289   29.2185 C   0  0  0  0  0  0  0  0  0  0  0  0
   34.6734  108.5584   29.0485 O   0  0  0  0  0  0  0  0  0  0  0  0
   35.6045  110.5590   28.3258 N   0  0  0  0  0  0  0  0  0  0  0  0
   35.3127  110.3711   27.3373 H   0  0  0  0  0  0  0  0  0  0  0  0
   35.6776  111.9768   28.7239 C   0  0  0  0  0  0  0  0  0  0  0  0
   36.5892  112.7651   27.8105 C   0  0  0  0  0  0  0  0  0  0  0  0
   37.4507  113.5380   28.2982 O   0  0  0  0  0  0  0  0  0  0  0  0
   36.4083  112.7496   26.3879 N   0  0  0  0  0  0  0  0  0  0  0  0
   37.1331  111.8457   25.5118 C   0  0  0  0  0  0  0  0  0  0  0  0
   37.0070  112.4384   24.1160 C   0  0  0  0  0  0  0  0  0  0  0  0
   35.8288  113.4074   24.1870 C   0  0  0  0  0  0  0  0  0  0  0  0
   35.7038  113.7977   25.6608 C   0  0  0  0  0  0  0  0  0  0  0  0
   36.3210  115.1446   25.9202 C   0  0  0  0  0  0  0  0  0  0  0  0
   35.7312  116.0057   26.8345 O   0  0  0  0  0  0  0  0  0  0  0  0
   37.3504  115.5038   25.2880 O   0  0  0  0  0  0  0  0  0  0  0  0
   36.1224  116.9227   27.0126 H   0  0  0  0  0  0  0  0  0  0  0  0
   34.2696  112.5938   28.8492 C   0  0  0  0  0  0  0  0  0  0  0  0
   33.5539  112.3377   30.5083 S   0  0  0  0  0  0  0  0  0  0  0  0
   34.5895  112.9836   31.1996 H   0  0  0  0  0  0  0  0  0  0  0  0
   36.4639  110.0932   31.4798 C   0  0  0  0  0  0  0  0  0  0  0  0
   36.6337  109.3497   32.7797 C   0  0  0  0  0  0  0  0  0  0  0  0
   36.4766  109.8660   34.0456 C   0  0  0  0  0  0  0  0  0  0  0  0
   36.7487  108.9069   34.9515 N   0  0  0  0  0  0  0  0  0  0  0  0
   37.0775  107.8283   34.2087 C   0  0  0  0  0  0  0  0  0  0  0  0
   37.0168  108.0650   32.8856 N   0  0  0  0  0  0  0  0  0  0  0  0
   37.2624  107.4062   32.1135 H   0  0  0  0  0  0  0  0  0  0  0  0
   40.8666  108.1979   28.1936 C   0  0  0  0  0  0  0  0  0  0  0  0
   41.8294  107.0072   28.3402 C   0  0  0  0  0  0  0  0  0  0  0  0
   41.5541  105.9539   27.3029 C   0  0  0  0  0  0  0  0  0  0  0  0
   41.3711  104.7583   27.6559 O   0  0  0  0  0  0  0  0  0  0  0  0
   41.5079  106.2975   25.9166 N   0  0  0  0  0  0  0  0  0  0  0  0
   41.2732  105.5736   25.2012 H   0  0  0  0  0  0  0  0  0  0  0  0
   41.7171  107.2674   25.5934 H   0  0  0  0  0  0  0  0  0  0  0  0
   41.2390  113.2349   29.3985 C   0  0  0  0  0  0  0  0  0  0  0  0
   42.4194  113.3987   28.4257 C   0  0  0  0  0  0  0  0  0  0  0  0
   42.0336  114.1369   27.1311 C   0  0  0  0  0  0  0  0  0  0  0  0
   40.6543  114.8281   27.1626 C   0  0  0  0  0  0  0  0  0  0  0  0
   39.7368  114.3007   26.1495 N   0  0  0  0  0  0  0  0  0  0  0  0
   39.4494  113.3315   26.4248 H   0  0  0  0  0  0  0  0  0  0  0  0
   40.2327  114.2406   25.2365 H   0  0  0  0  0  0  0  0  0  0  0  0
   46.0427  111.1432   29.8541 C   0  0  0  0  0  0  0  0  0  0  0  0
   45.4839  111.1776   28.7254 O   0  0  0  0  0  0  0  0  0  0  0  0
   45.6956  110.1217   30.7925 N   0  0  0  0  0  0  0  0  0  0  0  0
   46.4481  109.7117   31.3935 H   0  0  0  0  0  0  0  0  0  0  0  0
   46.9076  112.2856   30.3004 C   0  0  0  0  0  0  0  0  0  0  0  0
   49.3265  111.5277   30.5617 C   0  0  0  0  0  0  0  0  0  0  0  0
   49.9882  110.5221   30.9519 O   0  0  0  0  0  0  0  0  0  0  0  0
   48.0089  111.7386   31.0972 N   0  0  0  0  0  0  0  0  0  0  0  0
   47.7649  111.1922   31.9513 H   0  0  0  0  0  0  0  0  0  0  0  0
   49.9604  112.5370   29.6278 C   0  0  0  0  0  0  0  0  0  0  0  0
   51.5179  112.4461   27.6316 C   0  0  0  0  0  0  0  0  0  0  0  0
   50.6448  112.9677   26.8844 O   0  0  0  0  0  0  0  0  0  0  0  0
   51.1522  112.0062   28.9500 N   0  0  0  0  0  0  0  0  0  0  0  0
   51.7850  111.3311   29.4309 H   0  0  0  0  0  0  0  0  0  0  0  0
   52.9470  112.2980   27.1658 C   0  0  0  0  0  0  0  0  0  0  0  0
   53.1938  110.8532   26.7334 C   0  0  0  0  0  0  0  0  0  0  0  0
   55.3005  112.9501   27.9153 C   0  0  0  0  0  0  0  0  0  0  0  0
   55.7694  112.6974   26.7725 O   0  0  0  0  0  0  0  0  0  0  0  0
   53.9159  112.6899   28.2042 N   0  0  0  0  0  0  0  0  0  0  0  0
   53.6081  112.8343   29.1892 H   0  0  0  0  0  0  0  0  0  0  0  0
   56.2045  113.5261   28.9773 C   0  0  0  0  0  0  0  0  0  0  0  0
   55.5402  115.3334   30.6290 C   0  0  0  0  0  0  0  0  0  0  0  0
   56.3139  116.1858   31.1477 O   0  0  0  0  0  0  0  0  0  0  0  0
   55.7930  114.8990   29.2877 N   0  0  0  0  0  0  0  0  0  0  0  0
   56.0931  115.6411   28.6236 H   0  0  0  0  0  0  0  0  0  0  0  0
   54.2901  114.9323   31.3945 C   0  0  0  0  0  0  0  0  0  0  0  0
   53.2953  117.2370   31.5203 C   0  0  0  0  0  0  0  0  0  0  0  0
   52.4733  117.1598   30.5659 O   0  0  0  0  0  0  0  0  0  0  0  0
   53.7317  116.0401   32.1731 N   0  0  0  0  0  0  0  0  0  0  0  0
   53.6034  115.9597   33.2043 H   0  0  0  0  0  0  0  0  0  0  0  0
   54.0671  119.4145   30.7188 N   0  0  0  0  0  0  0  0  0  0  0  0
   53.8880  118.5745   31.9107 C   0  0  0  0  0  0  0  0  0  0  0  0
   54.5950  120.2744   30.9987 H   0  0  0  0  0  0  0  0  0  0  0  0
   54.6861  118.9088   30.0459 H   0  0  0  0  0  0  0  0  0  0  0  0
   53.0332  119.2885   32.9813 C   0  0  0  0  0  0  0  0  0  0  0  0
   52.5593  120.5031   32.4472 O   0  0  0  0  0  0  0  0  0  0  0  0
   51.8418  118.4399   33.4474 C   0  0  0  0  0  0  0  0  0  0  0  0
   52.2417  121.0485   33.2114 H   0  0  0  0  0  0  0  0  0  0  0  0
   54.5449  113.7060   32.2881 C   0  0  0  0  0  0  0  0  0  0  0  0
   53.2754  112.9050   32.6283 C   0  0  0  0  0  0  0  0  0  0  0  0
   53.2648  111.5459   31.9753 C   0  0  0  0  0  0  0  0  0  0  0  0
   53.2725  111.4236   30.7225 O   0  0  0  0  0  0  0  0  0  0  0  0
   53.2618  110.3740   32.7884 N   0  0  0  0  0  0  0  0  0  0  0  0
   53.2734  109.4289   32.3496 H   0  0  0  0  0  0  0  0  0  0  0  0
   53.2978  110.4486   33.8318 H   0  0  0  0  0  0  0  0  0  0  0  0
   57.7291  113.4527   28.6632 C   0  0  0  0  0  0  0  0  0  0  0  0
   58.4084  114.7158   28.0938 C   0  0  0  0  0  0  0  0  0  0  0  0
   59.4685  115.3622   28.9558 C   0  0  0  0  0  0  0  0  0  0  0  0
   60.5711  115.6518   28.4272 O   0  0  0  0  0  0  0  0  0  0  0  0
   59.2908  115.6169   30.3533 N   0  0  0  0  0  0  0  0  0  0  0  0
   58.4845  115.2443   30.8957 H   0  0  0  0  0  0  0  0  0  0  0  0
   60.0492  116.0971   30.8931 H   0  0  0  0  0  0  0  0  0  0  0  0
   50.3094  113.8140   30.4202 C   0  0  0  0  0  0  0  0  0  0  0  0
   50.1827  113.5964   31.8032 O   0  0  0  0  0  0  0  0  0  0  0  0
   51.0576  113.2359   32.1133 H   0  0  0  0  0  0  0  0  0  0  0  0
   46.1116  113.3290   31.1059 C   0  0  0  0  0  0  0  0  0  0  0  0
   46.8041  114.6620   31.0725 C   0  0  0  0  0  0  0  0  0  0  0  0
   47.3200  115.3388   32.1623 C   0  0  0  0  0  0  0  0  0  0  0  0
   47.8065  116.5282   31.7515 N   0  0  0  0  0  0  0  0  0  0  0  0
   47.5745  116.5431   30.4183 C   0  0  0  0  0  0  0  0  0  0  0  0
   46.9746  115.4180   29.9777 N   0  0  0  0  0  0  0  0  0  0  0  0
   46.6765  115.2087   29.0005 H   0  0  0  0  0  0  0  0  0  0  0  0
 95 96  1  0  0  0
 96 91  1  0  0  0
 91 92  2  0  0  0
 91 93  1  0  0  0
 93 90  1  0  0  0
 90103  1  0  0  0
103104  1  0  0  0
104105  1  0  0  0
105106  2  0  0  0
105107  1  0  0  0
 90 86  1  0  0  0
 86 87  2  0  0  0
 86 88  1  0  0  0
 88 85  1  0  0  0
 85110  1  0  0  0
110111  1  0  0  0
111112  1  0  0  0
112113  2  0  0  0
112114  1  0  0  0
 85 81  1  0  0  0
 81 82  2  0  0  0
 81 83  1  0  0  0
 83 79  1  0  0  0
 79 80  1  0  0  0
 79 75  1  0  0  0
 75 76  2  0  0  0
 75 77  1  0  0  0
 77 74  1  0  0  0
 74117  1  0  0  0
117118  1  0  0  0
 74 70  1  0  0  0
 70 71  2  0  0  0
 70 72  1  0  0  0
 72 69  1  0  0  0
 69120  1  0  0  0
120121  1  0  0  0
121122  2  0  0  0
122123  1  0  0  0
123124  2  0  0  0
124125  1  0  0  0
 69 65  1  0  0  0
 65 66  2  0  0  0
 65 67  1  0  0  0
 67  1  1  0  0  0
  1  2  1  0  0  0
  2  3  2  0  0  0
  3  4  1  0  0  0
  4  5  2  0  0  0
  5  6  1  0  0  0
  5  7  1  0  0  0
  7  8  2  0  0  0
  1 10  1  0  0  0
 10 11  2  0  0  0
 10 12  1  0  0  0
 12 14  1  0  0  0
 14 58  1  0  0  0
 58 59  1  0  0  0
 59 60  1  0  0  0
 60 61  1  0  0  0
 61 62  1  0  0  0
 14 15  1  0  0  0
 15 16  2  0  0  0
 15 17  1  0  0  0
 17 19  1  0  0  0
 19 51  1  0  0  0
 51 52  1  0  0  0
 52 53  1  0  0  0
 53 54  2  0  0  0
 53 55  1  0  0  0
 19 20  1  0  0  0
 20 21  2  0  0  0
 20 22  1  0  0  0
 22 24  1  0  0  0
 24 44  1  0  0  0
 44 45  1  0  0  0
 45 46  2  0  0  0
 46 47  1  0  0  0
 47 48  2  0  0  0
 48 49  1  0  0  0
 24 25  1  0  0  0
 25 26  2  0  0  0
 25 27  1  0  0  0
 27 29  1  0  0  0
 29 41  1  0  0  0
 41 42  1  0  0  0
 29 30  1  0  0  0
 30 31  2  0  0  0
 30 32  1  0  0  0
 32 33  1  0  0  0
 33 34  1  0  0  0
 34 35  1  0  0  0
 35 36  1  0  0  0
 36 37  1  0  0  0
 37 38  1  0  0  0
 37 39  2  0  0  0
 96 99  1  0  0  0
 99100  1  0  0  0
 99101  1  0  0  0
125121  1  0  0  0
  8  2  1  0  0  0
 49 45  1  0  0  0
 36 32  1  0  0  0
 95 97  1  0  0  0
 95 98  1  0  0  0
 93 94  1  0  0  0
107108  1  0  0  0
107109  1  0  0  0
 88 89  1  0  0  0
114115  1  0  0  0
114116  1  0  0  0
 83 84  1  0  0  0
 77 78  1  0  0  0
118119  1  0  0  0
 72 73  1  0  0  0
125126  1  0  0  0
 67 68  1  0  0  0
  6  9  1  0  0  0
 12 13  1  0  0  0
 62 63  1  0  0  0
 62 64  1  0  0  0
 17 18  1  0  0  0
 55 56  1  0  0  0
 55 57  1  0  0  0
 22 23  1  0  0  0
 49 50  1  0  0  0
 27 28  1  0  0  0
 42 43  1  0  0  0
 38 40  1  0  0  0
100102  1  0  0  0
M  END
> <minimizedAffinity>
-7.47360

$$$$



126129  0  0  0  0  0  0  0  0999 V2000
   68.8372  115.2756    4.8115 C   0  0  0  0  0  0  0  0  0  0  0  0
   68.1967  114.3688    3.7863 C   0  0  0  0  0  0  0  0  0  0  0  0
   66.7975  114.2808    3.6717 C   0  0  0  0  0  0  0  0  0  0  0  0
   66.2182  113.4765    2.6874 C   0  0  0  0  0  0  0  0  0  0  0  0
   67.0263  112.7338    1.8174 C   0  0  0  0  0  0  0  0  0  0  0  0
   66.4386  111.9361    0.8364 O   0  0  0  0  0  0  0  0  0  0  0  0
   68.4196  112.8029    1.9352 C   0  0  0  0  0  0  0  0  0  0  0  0
   68.9996  113.6234    2.9083 C   0  0  0  0  0  0  0  0  0  0  0  0
   67.0011  111.3558    0.2251 H   0  0  0  0  0  0  0  0  0  0  0  0
   68.6229  116.7225    4.4513 C   0  0  0  0  0  0  0  0  0  0  0  0
   68.2231  117.5445    5.3174 O   0  0  0  0  0  0  0  0  0  0  0  0
   68.8338  117.1597    3.1019 N   0  0  0  0  0  0  0  0  0  0  0  0
   69.6817  116.7887    2.6142 H   0  0  0  0  0  0  0  0  0  0  0  0
   67.7923  117.7548    2.2484 C   0  0  0  0  0  0  0  0  0  0  0  0
   67.9679  117.2550    0.8339 C   0  0  0  0  0  0  0  0  0  0  0  0
   68.9982  117.5621    0.1684 O   0  0  0  0  0  0  0  0  0  0  0  0
   66.9489  116.4370    0.2425 N   0  0  0  0  0  0  0  0  0  0  0  0
   66.2227  116.0261    0.8727 H   0  0  0  0  0  0  0  0  0  0  0  0
   66.6676  116.4751   -1.1972 C   0  0  0  0  0  0  0  0  0  0  0  0
   66.0820  115.1557   -1.6394 C   0  0  0  0  0  0  0  0  0  0  0  0
   66.0288  114.1972   -0.8240 O   0  0  0  0  0  0  0  0  0  0  0  0
   65.5276  115.0116   -2.9600 N   0  0  0  0  0  0  0  0  0  0  0  0
   65.5278  115.8601   -3.5747 H   0  0  0  0  0  0  0  0  0  0  0  0
   64.7255  113.8379   -3.3439 C   0  0  0  0  0  0  0  0  0  0  0  0
   64.6645  113.6624   -4.8478 C   0  0  0  0  0  0  0  0  0  0  0  0
   65.6631  113.9823   -5.5486 O   0  0  0  0  0  0  0  0  0  0  0  0
   63.4517  113.2751   -5.5219 N   0  0  0  0  0  0  0  0  0  0  0  0
   63.2540  113.7647   -6.4268 H   0  0  0  0  0  0  0  0  0  0  0  0
   62.6600  112.0606   -5.2532 C   0  0  0  0  0  0  0  0  0  0  0  0
   61.1771  112.3199   -5.3958 C   0  0  0  0  0  0  0  0  0  0  0  0
   60.3800  111.9048   -4.5185 O   0  0  0  0  0  0  0  0  0  0  0  0
   60.6395  112.9215   -6.5815 N   0  0  0  0  0  0  0  0  0  0  0  0
   60.3958  114.3486   -6.6993 C   0  0  0  0  0  0  0  0  0  0  0  0
   59.4388  114.5059   -7.8718 C   0  0  0  0  0  0  0  0  0  0  0  0
   59.5396  113.2022   -8.6609 C   0  0  0  0  0  0  0  0  0  0  0  0
   60.0375  112.1541   -7.6642 C   0  0  0  0  0  0  0  0  0  0  0  0
   58.9046  111.3033   -7.1593 C   0  0  0  0  0  0  0  0  0  0  0  0
   57.9197  111.8723   -6.3647 O   0  0  0  0  0  0  0  0  0  0  0  0
   58.8655  110.0728   -7.4290 O   0  0  0  0  0  0  0  0  0  0  0  0
   57.1566  111.3137   -6.0022 H   0  0  0  0  0  0  0  0  0  0  0  0
   63.1498  110.8752   -6.1098 C   0  0  0  0  0  0  0  0  0  0  0  0
   62.1595  109.3688   -5.8261 S   0  0  0  0  0  0  0  0  0  0  0  0
   60.9341  109.9462   -6.1900 H   0  0  0  0  0  0  0  0  0  0  0  0
   63.3078  113.9562   -2.7438 C   0  0  0  0  0  0  0  0  0  0  0  0
   62.8395  112.6738   -2.1053 C   0  0  0  0  0  0  0  0  0  0  0  0
   63.5966  111.5471   -1.8788 C   0  0  0  0  0  0  0  0  0  0  0  0
   62.8200  110.5963   -1.3245 N   0  0  0  0  0  0  0  0  0  0  0  0
   61.6001  111.1687   -1.2382 C   0  0  0  0  0  0  0  0  0  0  0  0
   61.5793  112.4308   -1.7039 N   0  0  0  0  0  0  0  0  0  0  0  0
   60.7516  113.0629   -1.7807 H   0  0  0  0  0  0  0  0  0  0  0  0
   65.6819  117.6198   -1.5142 C   0  0  0  0  0  0  0  0  0  0  0  0
   66.3609  118.7954   -2.2375 C   0  0  0  0  0  0  0  0  0  0  0  0
   67.4021  118.3094   -3.2074 C   0  0  0  0  0  0  0  0  0  0  0  0
   67.0511  117.6844   -4.2437 O   0  0  0  0  0  0  0  0  0  0  0  0
   68.7896  118.5430   -2.9577 N   0  0  0  0  0  0  0  0  0  0  0  0
   69.5086  118.2437   -3.6536 H   0  0  0  0  0  0  0  0  0  0  0  0
   69.1098  119.0029   -2.0774 H   0  0  0  0  0  0  0  0  0  0  0  0
   67.7402  119.3018    2.3301 C   0  0  0  0  0  0  0  0  0  0  0  0
   66.7768  119.9142    1.2989 C   0  0  0  0  0  0  0  0  0  0  0  0
   65.3465  120.0871    1.8412 C   0  0  0  0  0  0  0  0  0  0  0  0
   65.2371  120.9234    3.1334 C   0  0  0  0  0  0  0  0  0  0  0  0
   65.0741  122.3545    2.8660 N   0  0  0  0  0  0  0  0  0  0  0  0
   64.1164  122.5186    2.4738 H   0  0  0  0  0  0  0  0  0  0  0  0
   65.7686  122.6503    2.1496 H   0  0  0  0  0  0  0  0  0  0  0  0
   69.1516  114.3572    7.1277 C   0  0  0  0  0  0  0  0  0  0  0  0
   69.8142  113.3294    6.8244 O   0  0  0  0  0  0  0  0  0  0  0  0
   68.3163  114.9830    6.1504 N   0  0  0  0  0  0  0  0  0  0  0  0
   67.3985  115.3847    6.4537 H   0  0  0  0  0  0  0  0  0  0  0  0
   69.3965  115.0513    8.4355 C   0  0  0  0  0  0  0  0  0  0  0  0
   69.1465  113.1724   10.1387 C   0  0  0  0  0  0  0  0  0  0  0  0
   68.3335  112.2558   10.4554 O   0  0  0  0  0  0  0  0  0  0  0  0
   68.6432  114.3440    9.4744 N   0  0  0  0  0  0  0  0  0  0  0  0
   67.6102  114.4838    9.5048 H   0  0  0  0  0  0  0  0  0  0  0  0
   70.6006  113.0713   10.5486 C   0  0  0  0  0  0  0  0  0  0  0  0
   71.2383  110.9065   11.7001 C   0  0  0  0  0  0  0  0  0  0  0  0
   71.0983  110.2559   10.6277 O   0  0  0  0  0  0  0  0  0  0  0  0
   70.7881  112.2697   11.7667 N   0  0  0  0  0  0  0  0  0  0  0  0
   70.6418  112.6884   12.7104 H   0  0  0  0  0  0  0  0  0  0  0  0
   71.8925  110.2773   12.9073 C   0  0  0  0  0  0  0  0  0  0  0  0
   73.2857  110.8750   13.0999 C   0  0  0  0  0  0  0  0  0  0  0  0
   70.9780  107.9296   13.3292 C   0  0  0  0  0  0  0  0  0  0  0  0
   70.0560  108.3849   14.0588 O   0  0  0  0  0  0  0  0  0  0  0  0
   71.9803  108.8111   12.7937 N   0  0  0  0  0  0  0  0  0  0  0  0
   72.7655  108.3656   12.2733 H   0  0  0  0  0  0  0  0  0  0  0  0
   71.0217  106.4525   13.0243 C   0  0  0  0  0  0  0  0  0  0  0  0
   70.5852  105.0742   10.9397 C   0  0  0  0  0  0  0  0  0  0  0  0
   69.7567  104.1270   10.8360 O   0  0  0  0  0  0  0  0  0  0  0  0
   70.2678  106.1769   11.7969 N   0  0  0  0  0  0  0  0  0  0  0  0
   69.2783  106.4961   11.7716 H   0  0  0  0  0  0  0  0  0  0  0  0
   71.8017  105.0726   10.0288 C   0  0  0  0  0  0  0  0  0  0  0  0
   70.8315  105.5310    7.7560 C   0  0  0  0  0  0  0  0  0  0  0  0
   71.3267  106.6727    7.5462 O   0  0  0  0  0  0  0  0  0  0  0  0
   71.4804  104.6382    8.6675 N   0  0  0  0  0  0  0  0  0  0  0  0
   71.7555  103.6921    8.3275 H   0  0  0  0  0  0  0  0  0  0  0  0
   68.4266  105.2596    8.1058 N   0  0  0  0  0  0  0  0  0  0  0  0
   69.5120  105.1434    7.1226 C   0  0  0  0  0  0  0  0  0  0  0  0
   67.5549  104.8635    7.6820 H   0  0  0  0  0  0  0  0  0  0  0  0
   68.6496  104.6451    8.9211 H   0  0  0  0  0  0  0  0  0  0  0  0
   69.2182  105.9779    5.8562 C   0  0  0  0  0  0  0  0  0  0  0  0
   69.1848  105.1156    4.7425 O   0  0  0  0  0  0  0  0  0  0  0  0
   67.8889  106.7407    5.9476 C   0  0  0  0  0  0  0  0  0  0  0  0
   69.2524  105.6864    3.9351 H   0  0  0  0  0  0  0  0  0  0  0  0
   72.9470  104.2313   10.6184 C   0  0  0  0  0  0  0  0  0  0  0  0
   73.2362  102.9352    9.8402 C   0  0  0  0  0  0  0  0  0  0  0  0
   72.1258  101.9246    9.9800 C   0  0  0  0  0  0  0  0  0  0  0  0
   71.5177  101.4795    8.9718 O   0  0  0  0  0  0  0  0  0  0  0  0
   71.7651  101.4494   11.2756 N   0  0  0  0  0  0  0  0  0  0  0  0
   71.0123  100.7372   11.3841 H   0  0  0  0  0  0  0  0  0  0  0  0
   72.2836  101.7723   12.1256 H   0  0  0  0  0  0  0  0  0  0  0  0
   70.5651  105.5204   14.1866 C   0  0  0  0  0  0  0  0  0  0  0  0
   71.6287  105.0743   15.2117 C   0  0  0  0  0  0  0  0  0  0  0  0
   72.1508  103.6623   15.0756 C   0  0  0  0  0  0  0  0  0  0  0  0
   72.0405  103.0912   13.9617 O   0  0  0  0  0  0  0  0  0  0  0  0
   72.7220  102.9320   16.1664 N   0  0  0  0  0  0  0  0  0  0  0  0
   72.6823  103.2672   17.1508 H   0  0  0  0  0  0  0  0  0  0  0  0
   73.0967  101.9673   16.0045 H   0  0  0  0  0  0  0  0  0  0  0  0
   71.1754  114.4905   10.7382 C   0  0  0  0  0  0  0  0  0  0  0  0
   72.3285  114.6734    9.9553 O   0  0  0  0  0  0  0  0  0  0  0  0
   72.0165  114.9830    9.0618 H   0  0  0  0  0  0  0  0  0  0  0  0
   68.9964  116.5372    8.3817 C   0  0  0  0  0  0  0  0  0  0  0  0
   70.2165  117.4096    8.2931 C   0  0  0  0  0  0  0  0  0  0  0  0
   70.8365  118.0517    9.3492 C   0  0  0  0  0  0  0  0  0  0  0  0
   71.8591  118.7926    8.8743 N   0  0  0  0  0  0  0  0  0  0  0  0
   71.8353  118.5798    7.5380 C   0  0  0  0  0  0  0  0  0  0  0  0
   70.8530  117.7365    7.1586 N   0  0  0  0  0  0  0  0  0  0  0  0
   70.6227  117.4408    6.1855 H   0  0  0  0  0  0  0  0  0  0  0  0
 95 96  1  0  0  0
 96 91  1  0  0  0
 91 92  2  0  0  0
 91 93  1  0  0  0
 93 90  1  0  0  0
 90103  1  0  0  0
103104  1  0  0  0
104105  1  0  0  0
105106  2  0  0  0
105107  1  0  0  0
 90 86  1  0  0  0
 86 87  2  0  0  0
 86 88  1  0  0  0
 88 85  1  0  0  0
 85110  1  0  0  0
110111  1  0  0  0
111112  1  0  0  0
112113  2  0  0  0
112114  1  0  0  0
 85 81  1  0  0  0
 81 82  2  0  0  0
 81 83  1  0  0  0
 83 79  1  0  0  0
 79 80  1  0  0  0
 79 75  1  0  0  0
 75 76  2  0  0  0
 75 77  1  0  0  0
 77 74  1  0  0  0
 74117  1  0  0  0
117118  1  0  0  0
 74 70  1  0  0  0
 70 71  2  0  0  0
 70 72  1  0  0  0
 72 69  1  0  0  0
 69120  1  0  0  0
120121  1  0  0  0
121122  2  0  0  0
122123  1  0  0  0
123124  2  0  0  0
124125  1  0  0  0
 69 65  1  0  0  0
 65 66  2  0  0  0
 65 67  1  0  0  0
 67  1  1  0  0  0
  1  2  1  0  0  0
  2  3  2  0  0  0
  3  4  1  0  0  0
  4  5  2  0  0  0
  5  6  1  0  0  0
  5  7  1  0  0  0
  7  8  2  0  0  0
  1 10  1  0  0  0
 10 11  2  0  0  0
 10 12  1  0  0  0
 12 14  1  0  0  0
 14 58  1  0  0  0
 58 59  1  0  0  0
 59 60  1  0  0  0
 60 61  1  0  0  0
 61 62  1  0  0  0
 14 15  1  0  0  0
 15 16  2  0  0  0
 15 17  1  0  0  0
 17 19  1  0  0  0
 19 51  1  0  0  0
 51 52  1  0  0  0
 52 53  1  0  0  0
 53 54  2  0  0  0
 53 55  1  0  0  0
 19 20  1  0  0  0
 20 21  2  0  0  0
 20 22  1  0  0  0
 22 24  1  0  0  0
 24 44  1  0  0  0
 44 45  1  0  0  0
 45 46  2  0  0  0
 46 47  1  0  0  0
 47 48  2  0  0  0
 48 49  1  0  0  0
 24 25  1  0  0  0
 25 26  2  0  0  0
 25 27  1  0  0  0
 27 29  1  0  0  0
 29 41  1  0  0  0
 41 42  1  0  0  0
 29 30  1  0  0  0
 30 31  2  0  0  0
 30 32  1  0  0  0
 32 33  1  0  0  0
 33 34  1  0  0  0
 34 35  1  0  0  0
 35 36  1  0  0  0
 36 37  1  0  0  0
 37 38  1  0  0  0
 37 39  2  0  0  0
 96 99  1  0  0  0
 99100  1  0  0  0
 99101  1  0  0  0
125121  1  0  0  0
  8  2  1  0  0  0
 49 45  1  0  0  0
 36 32  1  0  0  0
 95 97  1  0  0  0
 95 98  1  0  0  0
 93 94  1  0  0  0
107108  1  0  0  0
107109  1  0  0  0
 88 89  1  0  0  0
114115  1  0  0  0
114116  1  0  0  0
 83 84  1  0  0  0
 77 78  1  0  0  0
118119  1  0  0  0
 72 73  1  0  0  0
125126  1  0  0  0
 67 68  1  0  0  0
  6  9  1  0  0  0
 12 13  1  0  0  0
 62 63  1  0  0  0
 62 64  1  0  0  0
 17 18  1  0  0  0
 55 56  1  0  0  0
 55 57  1  0  0  0
 22 23  1  0  0  0
 49 50  1  0  0  0
 27 28  1  0  0  0
 42 43  1  0  0  0
 38 40  1  0  0  0
100102  1  0  0  0
M  END
> <minimizedAffinity>
-7.32080

$$$$



126129  0  0  0  0  0  0  0  0999 V2000
   66.6938  106.6542    4.8667 C   0  0  0  0  0  0  0  0  0  0  0  0
   66.4368  105.1781    5.0635 C   0  0  0  0  0  0  0  0  0  0  0  0
   65.1640  104.7085    5.4351 C   0  0  0  0  0  0  0  0  0  0  0  0
   64.9268  103.3381    5.5658 C   0  0  0  0  0  0  0  0  0  0  0  0
   65.9608  102.4190    5.3474 C   0  0  0  0  0  0  0  0  0  0  0  0
   65.7133  101.0530    5.4776 O   0  0  0  0  0  0  0  0  0  0  0  0
   67.2349  102.8789    4.9932 C   0  0  0  0  0  0  0  0  0  0  0  0
   67.4671  104.2501    4.8434 C   0  0  0  0  0  0  0  0  0  0  0  0
   66.4559  100.3722    5.3683 H   0  0  0  0  0  0  0  0  0  0  0  0
   68.1384  106.9845    5.1375 C   0  0  0  0  0  0  0  0  0  0  0  0
   69.0130  106.8031    4.2500 O   0  0  0  0  0  0  0  0  0  0  0  0
   68.5285  107.4685    6.4299 N   0  0  0  0  0  0  0  0  0  0  0  0
   67.9062  108.1839    6.8719 H   0  0  0  0  0  0  0  0  0  0  0  0
   69.4811  106.7855    7.3207 C   0  0  0  0  0  0  0  0  0  0  0  0
   70.6363  107.7136    7.6130 C   0  0  0  0  0  0  0  0  0  0  0  0
   71.5463  107.8952    6.7542 O   0  0  0  0  0  0  0  0  0  0  0  0
   70.7023  108.3810    8.8809 N   0  0  0  0  0  0  0  0  0  0  0  0
   69.8447  108.3835    9.4792 H   0  0  0  0  0  0  0  0  0  0  0  0
   71.9846  108.7052    9.5165 C   0  0  0  0  0  0  0  0  0  0  0  0
   71.8179  109.8989   10.4256 C   0  0  0  0  0  0  0  0  0  0  0  0
   72.4770  110.9478   10.1979 O   0  0  0  0  0  0  0  0  0  0  0  0
   70.8656  109.8648   11.5045 N   0  0  0  0  0  0  0  0  0  0  0  0
   70.2880  108.9965   11.6061 H   0  0  0  0  0  0  0  0  0  0  0  0
   70.4890  111.0779   12.2493 C   0  0  0  0  0  0  0  0  0  0  0  0
   70.3823  110.8167   13.7382 C   0  0  0  0  0  0  0  0  0  0  0  0
   69.2971  110.3846   14.2138 O   0  0  0  0  0  0  0  0  0  0  0  0
   71.4339  111.1796   14.6535 N   0  0  0  0  0  0  0  0  0  0  0  0
   71.1251  111.5882   15.5674 H   0  0  0  0  0  0  0  0  0  0  0  0
   72.8383  110.7367   14.5806 C   0  0  0  0  0  0  0  0  0  0  0  0
   72.9408  109.2393   14.3956 C   0  0  0  0  0  0  0  0  0  0  0  0
   73.2191  108.7638   13.2670 O   0  0  0  0  0  0  0  0  0  0  0  0
   72.5997  108.3355   15.4556 N   0  0  0  0  0  0  0  0  0  0  0  0
   73.5851  107.7899   16.3728 C   0  0  0  0  0  0  0  0  0  0  0  0
   72.9230  106.5788   17.0132 C   0  0  0  0  0  0  0  0  0  0  0  0
   71.4251  106.7562   16.7742 C   0  0  0  0  0  0  0  0  0  0  0  0
   71.3076  107.6687   15.5521 C   0  0  0  0  0  0  0  0  0  0  0  0
   71.0139  106.8757   14.3083 C   0  0  0  0  0  0  0  0  0  0  0  0
   70.2958  107.4600   13.2748 O   0  0  0  0  0  0  0  0  0  0  0  0
   71.3898  105.6762   14.2165 O   0  0  0  0  0  0  0  0  0  0  0  0
   70.0747  106.9385   12.4353 H   0  0  0  0  0  0  0  0  0  0  0  0
   73.6186  111.5307   13.5131 C   0  0  0  0  0  0  0  0  0  0  0  0
   73.6765  113.3150   13.8921 S   0  0  0  0  0  0  0  0  0  0  0  0
   74.2938  113.1641   15.1425 H   0  0  0  0  0  0  0  0  0  0  0  0
   69.1644  111.6422   11.6915 C   0  0  0  0  0  0  0  0  0  0  0  0
   69.3817  112.7237   10.6646 C   0  0  0  0  0  0  0  0  0  0  0  0
   70.3540  113.6972   10.6929 C   0  0  0  0  0  0  0  0  0  0  0  0
   70.2054  114.5022    9.6231 N   0  0  0  0  0  0  0  0  0  0  0  0
   69.1326  114.0014    8.9737 C   0  0  0  0  0  0  0  0  0  0  0  0
   68.6099  112.9205    9.5810 N   0  0  0  0  0  0  0  0  0  0  0  0
   67.7603  112.3844    9.2962 H   0  0  0  0  0  0  0  0  0  0  0  0
   72.4950  107.4949   10.3272 C   0  0  0  0  0  0  0  0  0  0  0  0
   73.9778  107.1896   10.0551 C   0  0  0  0  0  0  0  0  0  0  0  0
   74.5399  106.2552   11.0906 C   0  0  0  0  0  0  0  0  0  0  0  0
   75.6480  105.6900   10.8903 O   0  0  0  0  0  0  0  0  0  0  0  0
   73.8210  105.9955   12.2980 N   0  0  0  0  0  0  0  0  0  0  0  0
   74.2327  105.3810   13.0354 H   0  0  0  0  0  0  0  0  0  0  0  0
   72.8737  106.4019   12.4605 H   0  0  0  0  0  0  0  0  0  0  0  0
   69.9464  105.4082    6.7831 C   0  0  0  0  0  0  0  0  0  0  0  0
   70.1442  104.3742    7.9049 C   0  0  0  0  0  0  0  0  0  0  0  0
   69.0896  104.4882    9.0204 C   0  0  0  0  0  0  0  0  0  0  0  0
   69.6619  104.6965   10.4382 C   0  0  0  0  0  0  0  0  0  0  0  0
   69.4277  106.0502   10.9468 N   0  0  0  0  0  0  0  0  0  0  0  0
   68.4070  106.1616   11.1557 H   0  0  0  0  0  0  0  0  0  0  0  0
   69.6813  106.7411   10.2110 H   0  0  0  0  0  0  0  0  0  0  0  0
   66.4199  108.4342    3.1163 C   0  0  0  0  0  0  0  0  0  0  0  0
   65.9671  109.3465    3.8581 O   0  0  0  0  0  0  0  0  0  0  0  0
   66.3036  107.0659    3.5147 N   0  0  0  0  0  0  0  0  0  0  0  0
   66.1073  106.3425    2.7841 H   0  0  0  0  0  0  0  0  0  0  0  0
   67.2668  108.7823    1.9274 C   0  0  0  0  0  0  0  0  0  0  0  0
   66.9846  107.0725    0.0590 C   0  0  0  0  0  0  0  0  0  0  0  0
   66.8101  105.8287   -0.0956 O   0  0  0  0  0  0  0  0  0  0  0  0
   67.6386  107.5358    1.2527 N   0  0  0  0  0  0  0  0  0  0  0  0
   68.1464  106.8154    1.8100 H   0  0  0  0  0  0  0  0  0  0  0  0
   66.6006  108.0353   -1.0447 C   0  0  0  0  0  0  0  0  0  0  0  0
   64.4420  108.8180   -2.1156 C   0  0  0  0  0  0  0  0  0  0  0  0
   64.6616  110.0105   -1.7653 O   0  0  0  0  0  0  0  0  0  0  0  0
   65.2632  107.7618   -1.5907 N   0  0  0  0  0  0  0  0  0  0  0  0
   64.8991  106.7865   -1.6508 H   0  0  0  0  0  0  0  0  0  0  0  0
   63.3411  108.4895   -3.0959 C   0  0  0  0  0  0  0  0  0  0  0  0
   63.8287  107.4148   -4.0668 C   0  0  0  0  0  0  0  0  0  0  0  0
   61.5173  110.1237   -3.8237 C   0  0  0  0  0  0  0  0  0  0  0  0
   60.6230  109.4145   -3.2879 O   0  0  0  0  0  0  0  0  0  0  0  0
   62.8840  109.6762   -3.8400 N   0  0  0  0  0  0  0  0  0  0  0  0
   63.5615  110.2606   -4.3742 H   0  0  0  0  0  0  0  0  0  0  0  0
   61.1412  111.4445   -4.4488 C   0  0  0  0  0  0  0  0  0  0  0  0
   62.3872  113.6070   -3.9942 C   0  0  0  0  0  0  0  0  0  0  0  0
   61.9093  114.7723   -4.0849 O   0  0  0  0  0  0  0  0  0  0  0  0
   61.5321  112.5432   -3.5597 N   0  0  0  0  0  0  0  0  0  0  0  0
   60.8752  112.7804   -2.7889 H   0  0  0  0  0  0  0  0  0  0  0  0
   63.8821  113.4217   -4.1958 C   0  0  0  0  0  0  0  0  0  0  0  0
   65.4038  113.8784   -2.2483 C   0  0  0  0  0  0  0  0  0  0  0  0
   66.2043  112.9117   -2.3802 O   0  0  0  0  0  0  0  0  0  0  0  0
   64.6748  114.3499   -3.3864 N   0  0  0  0  0  0  0  0  0  0  0  0
   64.7558  115.3555   -3.6485 H   0  0  0  0  0  0  0  0  0  0  0  0
   64.3756  115.7185   -1.0089 N   0  0  0  0  0  0  0  0  0  0  0  0
   65.1450  114.4737   -0.8804 C   0  0  0  0  0  0  0  0  0  0  0  0
   64.3248  116.1727   -0.0668 H   0  0  0  0  0  0  0  0  0  0  0  0
   64.9126  116.3802   -1.6136 H   0  0  0  0  0  0  0  0  0  0  0  0
   64.4399  113.4684    0.0570 C   0  0  0  0  0  0  0  0  0  0  0  0
   64.9597  113.6197    1.3577 O   0  0  0  0  0  0  0  0  0  0  0  0
   62.9174  113.6632    0.0930 C   0  0  0  0  0  0  0  0  0  0  0  0
   64.6904  112.8153    1.8702 H   0  0  0  0  0  0  0  0  0  0  0  0
   64.2675  113.5210   -5.6820 C   0  0  0  0  0  0  0  0  0  0  0  0
   63.8991  112.2761   -6.5086 C   0  0  0  0  0  0  0  0  0  0  0  0
   62.8100  112.5583   -7.5127 C   0  0  0  0  0  0  0  0  0  0  0  0
   62.2983  113.7037   -7.6159 O   0  0  0  0  0  0  0  0  0  0  0  0
   62.3591  111.5150   -8.3744 N   0  0  0  0  0  0  0  0  0  0  0  0
   61.6204  111.7018   -9.0852 H   0  0  0  0  0  0  0  0  0  0  0  0
   62.7977  110.5654   -8.3371 H   0  0  0  0  0  0  0  0  0  0  0  0
   59.6499  111.5739   -4.8817 C   0  0  0  0  0  0  0  0  0  0  0  0
   59.2898  112.6715   -5.9047 C   0  0  0  0  0  0  0  0  0  0  0  0
   59.0778  112.2238   -7.3328 C   0  0  0  0  0  0  0  0  0  0  0  0
   59.3400  111.0308   -7.6281 O   0  0  0  0  0  0  0  0  0  0  0  0
   58.6371  113.1055   -8.3708 N   0  0  0  0  0  0  0  0  0  0  0  0
   58.5748  114.1368   -8.2451 H   0  0  0  0  0  0  0  0  0  0  0  0
   58.4769  112.7310   -9.3358 H   0  0  0  0  0  0  0  0  0  0  0  0
   67.6647  107.9802   -2.1605 C   0  0  0  0  0  0  0  0  0  0  0  0
   67.4414  106.8850   -3.0130 O   0  0  0  0  0  0  0  0  0  0  0  0
   66.8074  107.1982   -3.7142 H   0  0  0  0  0  0  0  0  0  0  0  0
   68.5183  109.5849    2.3280 C   0  0  0  0  0  0  0  0  0  0  0  0
   68.2909  111.0556    2.1207 C   0  0  0  0  0  0  0  0  0  0  0  0
   67.9907  111.6715    0.9196 C   0  0  0  0  0  0  0  0  0  0  0  0
   67.9223  113.0048    1.1140 N   0  0  0  0  0  0  0  0  0  0  0  0
   68.1818  113.1653    2.4325 C   0  0  0  0  0  0  0  0  0  0  0  0
   68.4007  111.9967    3.0701 N   0  0  0  0  0  0  0  0  0  0  0  0
   68.6416  111.8680    4.0765 H   0  0  0  0  0  0  0  0  0  0  0  0
 95 96  1  0  0  0
 96 91  1  0  0  0
 91 92  2  0  0  0
 91 93  1  0  0  0
 93 90  1  0  0  0
 90103  1  0  0  0
103104  1  0  0  0
104105  1  0  0  0
105106  2  0  0  0
105107  1  0  0  0
 90 86  1  0  0  0
 86 87  2  0  0  0
 86 88  1  0  0  0
 88 85  1  0  0  0
 85110  1  0  0  0
110111  1  0  0  0
111112  1  0  0  0
112113  2  0  0  0
112114  1  0  0  0
 85 81  1  0  0  0
 81 82  2  0  0  0
 81 83  1  0  0  0
 83 79  1  0  0  0
 79 80  1  0  0  0
 79 75  1  0  0  0
 75 76  2  0  0  0
 75 77  1  0  0  0
 77 74  1  0  0  0
 74117  1  0  0  0
117118  1  0  0  0
 74 70  1  0  0  0
 70 71  2  0  0  0
 70 72  1  0  0  0
 72 69  1  0  0  0
 69120  1  0  0  0
120121  1  0  0  0
121122  2  0  0  0
122123  1  0  0  0
123124  2  0  0  0
124125  1  0  0  0
 69 65  1  0  0  0
 65 66  2  0  0  0
 65 67  1  0  0  0
 67  1  1  0  0  0
  1  2  1  0  0  0
  2  3  2  0  0  0
  3  4  1  0  0  0
  4  5  2  0  0  0
  5  6  1  0  0  0
  5  7  1  0  0  0
  7  8  2  0  0  0
  1 10  1  0  0  0
 10 11  2  0  0  0
 10 12  1  0  0  0
 12 14  1  0  0  0
 14 58  1  0  0  0
 58 59  1  0  0  0
 59 60  1  0  0  0
 60 61  1  0  0  0
 61 62  1  0  0  0
 14 15  1  0  0  0
 15 16  2  0  0  0
 15 17  1  0  0  0
 17 19  1  0  0  0
 19 51  1  0  0  0
 51 52  1  0  0  0
 52 53  1  0  0  0
 53 54  2  0  0  0
 53 55  1  0  0  0
 19 20  1  0  0  0
 20 21  2  0  0  0
 20 22  1  0  0  0
 22 24  1  0  0  0
 24 44  1  0  0  0
 44 45  1  0  0  0
 45 46  2  0  0  0
 46 47  1  0  0  0
 47 48  2  0  0  0
 48 49  1  0  0  0
 24 25  1  0  0  0
 25 26  2  0  0  0
 25 27  1  0  0  0
 27 29  1  0  0  0
 29 41  1  0  0  0
 41 42  1  0  0  0
 29 30  1  0  0  0
 30 31  2  0  0  0
 30 32  1  0  0  0
 32 33  1  0  0  0
 33 34  1  0  0  0
 34 35  1  0  0  0
 35 36  1  0  0  0
 36 37  1  0  0  0
 37 38  1  0  0  0
 37 39  2  0  0  0
 96 99  1  0  0  0
 99100  1  0  0  0
 99101  1  0  0  0
125121  1  0  0  0
  8  2  1  0  0  0
 49 45  1  0  0  0
 36 32  1  0  0  0
 95 97  1  0  0  0
 95 98  1  0  0  0
 93 94  1  0  0  0
107108  1  0  0  0
107109  1  0  0  0
 88 89  1  0  0  0
114115  1  0  0  0
114116  1  0  0  0
 83 84  1  0  0  0
 77 78  1  0  0  0
118119  1  0  0  0
 72 73  1  0  0  0
125126  1  0  0  0
 67 68  1  0  0  0
  6  9  1  0  0  0
 12 13  1  0  0  0
 62 63  1  0  0  0
 62 64  1  0  0  0
 17 18  1  0  0  0
 55 56  1  0  0  0
 55 57  1  0  0  0
 22 23  1  0  0  0
 49 50  1  0  0  0
 27 28  1  0  0  0
 42 43  1  0  0  0
 38 40  1  0  0  0
100102  1  0  0  0
M  END
> <minimizedAffinity>
-7.31100

$$$$



126129  0  0  0  0  0  0  0  0999 V2000
   69.3447  114.1795    5.4147 C   0  0  0  0  0  0  0  0  0  0  0  0
   68.3702  114.9829    6.2445 C   0  0  0  0  0  0  0  0  0  0  0  0
   68.5262  115.0939    7.6379 C   0  0  0  0  0  0  0  0  0  0  0  0
   67.6472  115.8797    8.3870 C   0  0  0  0  0  0  0  0  0  0  0  0
   66.5891  116.5490    7.7592 C   0  0  0  0  0  0  0  0  0  0  0  0
   65.7187  117.3332    8.5153 O   0  0  0  0  0  0  0  0  0  0  0  0
   66.4169  116.4306    6.3749 C   0  0  0  0  0  0  0  0  0  0  0  0
   67.3088  115.6594    5.6224 C   0  0  0  0  0  0  0  0  0  0  0  0
   64.9204  117.7904    8.0902 H   0  0  0  0  0  0  0  0  0  0  0  0
   70.1926  115.0864    4.5616 C   0  0  0  0  0  0  0  0  0  0  0  0
   70.9108  115.9749    5.0910 O   0  0  0  0  0  0  0  0  0  0  0  0
   70.1495  114.9666    3.1331 N   0  0  0  0  0  0  0  0  0  0  0  0
   70.1535  113.9962    2.7421 H   0  0  0  0  0  0  0  0  0  0  0  0
   69.7240  116.0411    2.2212 C   0  0  0  0  0  0  0  0  0  0  0  0
   68.3588  115.7073    1.6678 C   0  0  0  0  0  0  0  0  0  0  0  0
   67.6112  116.6191    1.2114 O   0  0  0  0  0  0  0  0  0  0  0  0
   67.9079  114.3456    1.6746 N   0  0  0  0  0  0  0  0  0  0  0  0
   68.6143  113.5959    1.8544 H   0  0  0  0  0  0  0  0  0  0  0  0
   66.4889  114.0034    1.8253 C   0  0  0  0  0  0  0  0  0  0  0  0
   65.8581  113.8253    0.4653 C   0  0  0  0  0  0  0  0  0  0  0  0
   66.5872  113.5522   -0.5248 O   0  0  0  0  0  0  0  0  0  0  0  0
   64.4290  113.9006    0.3104 N   0  0  0  0  0  0  0  0  0  0  0  0
   63.8608  114.0552    1.1770 H   0  0  0  0  0  0  0  0  0  0  0  0
   63.7577  113.4855   -0.9327 C   0  0  0  0  0  0  0  0  0  0  0  0
   63.5291  114.6548   -1.8692 C   0  0  0  0  0  0  0  0  0  0  0  0
   64.0176  115.7816   -1.5819 O   0  0  0  0  0  0  0  0  0  0  0  0
   62.6521  114.5598   -3.0081 N   0  0  0  0  0  0  0  0  0  0  0  0
   62.0473  115.3953   -3.1916 H   0  0  0  0  0  0  0  0  0  0  0  0
   62.7579  113.5801   -4.1049 C   0  0  0  0  0  0  0  0  0  0  0  0
   62.1401  114.1048   -5.3815 C   0  0  0  0  0  0  0  0  0  0  0  0
   61.5518  115.2145   -5.3843 O   0  0  0  0  0  0  0  0  0  0  0  0
   62.0969  113.3025   -6.5694 N   0  0  0  0  0  0  0  0  0  0  0  0
   63.1061  113.3830   -7.6110 C   0  0  0  0  0  0  0  0  0  0  0  0
   62.4766  112.7477   -8.8421 C   0  0  0  0  0  0  0  0  0  0  0  0
   61.3042  111.9190   -8.3216 C   0  0  0  0  0  0  0  0  0  0  0  0
   60.9226  112.5425   -6.9779 C   0  0  0  0  0  0  0  0  0  0  0  0
   59.7208  113.4364   -7.1157 C   0  0  0  0  0  0  0  0  0  0  0  0
   59.8241  114.6207   -7.8312 O   0  0  0  0  0  0  0  0  0  0  0  0
   58.6333  113.1286   -6.5579 O   0  0  0  0  0  0  0  0  0  0  0  0
   59.0310  115.2437   -7.9232 H   0  0  0  0  0  0  0  0  0  0  0  0
   64.2138  113.1060   -4.2903 C   0  0  0  0  0  0  0  0  0  0  0  0
   65.3199  114.4683   -4.7916 S   0  0  0  0  0  0  0  0  0  0  0  0
   65.0555  115.2713   -3.6724 H   0  0  0  0  0  0  0  0  0  0  0  0
   62.4264  112.7796   -0.5959 C   0  0  0  0  0  0  0  0  0  0  0  0
   62.2122  111.5280   -1.4076 C   0  0  0  0  0  0  0  0  0  0  0  0
   63.1569  110.5723   -1.7048 C   0  0  0  0  0  0  0  0  0  0  0  0
   62.5978  109.6238   -2.4808 N   0  0  0  0  0  0  0  0  0  0  0  0
   61.3225  110.0355   -2.6464 C   0  0  0  0  0  0  0  0  0  0  0  0
   61.0569  111.1888   -2.0064 N   0  0  0  0  0  0  0  0  0  0  0  0
   60.1611  111.7254   -2.0161 H   0  0  0  0  0  0  0  0  0  0  0  0
   66.3415  112.7049    2.6466 C   0  0  0  0  0  0  0  0  0  0  0  0
   67.6707  111.9427    2.7829 C   0  0  0  0  0  0  0  0  0  0  0  0
   67.5446  110.5336    2.2730 C   0  0  0  0  0  0  0  0  0  0  0  0
   66.6973  110.2628    1.3806 O   0  0  0  0  0  0  0  0  0  0  0  0
   68.3733  109.4958    2.8004 N   0  0  0  0  0  0  0  0  0  0  0  0
   68.3154  108.5270    2.4146 H   0  0  0  0  0  0  0  0  0  0  0  0
   69.0388  109.6813    3.5825 H   0  0  0  0  0  0  0  0  0  0  0  0
   70.7579  116.3480    1.1080 C   0  0  0  0  0  0  0  0  0  0  0  0
   70.8651  117.8518    0.8019 C   0  0  0  0  0  0  0  0  0  0  0  0
   71.0827  118.7079    2.0626 C   0  0  0  0  0  0  0  0  0  0  0  0
   72.4887  118.5983    2.6891 C   0  0  0  0  0  0  0  0  0  0  0  0
   72.4448  118.2997    4.1226 N   0  0  0  0  0  0  0  0  0  0  0  0
   72.1214  117.3116    4.2529 H   0  0  0  0  0  0  0  0  0  0  0  0
   71.7526  118.9265    4.5819 H   0  0  0  0  0  0  0  0  0  0  0  0
   71.2316  112.5496    5.7157 C   0  0  0  0  0  0  0  0  0  0  0  0
   71.0100  111.8306    4.7050 O   0  0  0  0  0  0  0  0  0  0  0  0
   70.1782  113.3365    6.2776 N   0  0  0  0  0  0  0  0  0  0  0  0
   70.1244  113.4387    7.3179 H   0  0  0  0  0  0  0  0  0  0  0  0
   72.6370  112.7517    6.2016 C   0  0  0  0  0  0  0  0  0  0  0  0
   73.2935  110.4702    7.1279 C   0  0  0  0  0  0  0  0  0  0  0  0
   74.3298  109.7811    7.3570 O   0  0  0  0  0  0  0  0  0  0  0  0
   73.3430  111.4719    6.0976 N   0  0  0  0  0  0  0  0  0  0  0  0
   74.1467  111.4138    5.4356 H   0  0  0  0  0  0  0  0  0  0  0  0
   72.0033  110.1663    7.8598 C   0  0  0  0  0  0  0  0  0  0  0  0
   71.2091  110.6912   10.2078 C   0  0  0  0  0  0  0  0  0  0  0  0
   70.4164  111.5743    9.7781 O   0  0  0  0  0  0  0  0  0  0  0  0
   72.1814  110.1175    9.3184 N   0  0  0  0  0  0  0  0  0  0  0  0
   72.9967  109.6239    9.7416 H   0  0  0  0  0  0  0  0  0  0  0  0
   71.1345  110.2144   11.6389 C   0  0  0  0  0  0  0  0  0  0  0  0
   72.1383  110.9940   12.4876 C   0  0  0  0  0  0  0  0  0  0  0  0
   70.7293  107.9455   12.7407 C   0  0  0  0  0  0  0  0  0  0  0  0
   70.0260  108.4736   13.6442 O   0  0  0  0  0  0  0  0  0  0  0  0
   71.3840  108.7674   11.7588 N   0  0  0  0  0  0  0  0  0  0  0  0
   72.0223  108.2824   11.0930 H   0  0  0  0  0  0  0  0  0  0  0  0
   70.8793  106.4447   12.6996 C   0  0  0  0  0  0  0  0  0  0  0  0
   70.1773  104.5146   11.2103 C   0  0  0  0  0  0  0  0  0  0  0  0
   69.0310  103.9867   11.1702 O   0  0  0  0  0  0  0  0  0  0  0  0
   70.2805  105.9198   11.4681 N   0  0  0  0  0  0  0  0  0  0  0  0
   69.5683  106.5164   11.0006 H   0  0  0  0  0  0  0  0  0  0  0  0
   71.3774  103.6655   10.8251 C   0  0  0  0  0  0  0  0  0  0  0  0
   71.0599  103.9496    8.3481 C   0  0  0  0  0  0  0  0  0  0  0  0
   71.8626  104.9019    8.1446 O   0  0  0  0  0  0  0  0  0  0  0  0
   71.2516  103.0964    9.4815 N   0  0  0  0  0  0  0  0  0  0  0  0
   71.3419  102.0702    9.3231 H   0  0  0  0  0  0  0  0  0  0  0  0
   69.3299  102.3995    7.5841 N   0  0  0  0  0  0  0  0  0  0  0  0
   69.8502  103.7674    7.4560 C   0  0  0  0  0  0  0  0  0  0  0  0
   68.5811  102.2635    6.8650 H   0  0  0  0  0  0  0  0  0  0  0  0
   70.0907  101.7295    7.3308 H   0  0  0  0  0  0  0  0  0  0  0  0
   68.7566  104.8174    7.7533 C   0  0  0  0  0  0  0  0  0  0  0  0
   69.3305  105.8745    8.4869 O   0  0  0  0  0  0  0  0  0  0  0  0
   68.1128  105.3764    6.4766 C   0  0  0  0  0  0  0  0  0  0  0  0
   68.5815  106.3922    8.8785 H   0  0  0  0  0  0  0  0  0  0  0  0
   71.6467  102.5644   11.8654 C   0  0  0  0  0  0  0  0  0  0  0  0
   73.1301  102.1744   11.9941 C   0  0  0  0  0  0  0  0  0  0  0  0
   73.4192  100.8205   11.3964 C   0  0  0  0  0  0  0  0  0  0  0  0
   72.7944  100.4067   10.3850 O   0  0  0  0  0  0  0  0  0  0  0  0
   74.4296   99.9966   11.9749 N   0  0  0  0  0  0  0  0  0  0  0  0
   74.6520   99.0669   11.5600 H   0  0  0  0  0  0  0  0  0  0  0  0
   74.9921  100.3353   12.7901 H   0  0  0  0  0  0  0  0  0  0  0  0
   70.3436  105.6889   13.9526 C   0  0  0  0  0  0  0  0  0  0  0  0
   71.2712  105.5838   15.1812 C   0  0  0  0  0  0  0  0  0  0  0  0
   72.1492  104.3562   15.2645 C   0  0  0  0  0  0  0  0  0  0  0  0
   73.3897  104.5181   15.3833 O   0  0  0  0  0  0  0  0  0  0  0  0
   71.6384  103.0224   15.1684 N   0  0  0  0  0  0  0  0  0  0  0  0
   70.6575  102.8135   14.8904 H   0  0  0  0  0  0  0  0  0  0  0  0
   72.2914  102.2091   15.2653 H   0  0  0  0  0  0  0  0  0  0  0  0
   71.4242  108.8348    7.3382 C   0  0  0  0  0  0  0  0  0  0  0  0
   70.1190  108.6327    7.8198 O   0  0  0  0  0  0  0  0  0  0  0  0
   69.5078  109.0830    7.1754 H   0  0  0  0  0  0  0  0  0  0  0  0
   72.6751  113.2847    7.6457 C   0  0  0  0  0  0  0  0  0  0  0  0
   72.9505  114.7618    7.6561 C   0  0  0  0  0  0  0  0  0  0  0  0
   72.2272  115.7199    8.3423 C   0  0  0  0  0  0  0  0  0  0  0  0
   72.7318  116.9386    8.0590 N   0  0  0  0  0  0  0  0  0  0  0  0
   73.7530  116.6890    7.2066 C   0  0  0  0  0  0  0  0  0  0  0  0
   73.9138  115.3740    6.9516 N   0  0  0  0  0  0  0  0  0  0  0  0
   74.6145  114.9414    6.3118 H   0  0  0  0  0  0  0  0  0  0  0  0
 95 96  1  0  0  0
 96 91  1  0  0  0
 91 92  2  0  0  0
 91 93  1  0  0  0
 93 90  1  0  0  0
 90103  1  0  0  0
103104  1  0  0  0
104105  1  0  0  0
105106  2  0  0  0
105107  1  0  0  0
 90 86  1  0  0  0
 86 87  2  0  0  0
 86 88  1  0  0  0
 88 85  1  0  0  0
 85110  1  0  0  0
110111  1  0  0  0
111112  1  0  0  0
112113  2  0  0  0
112114  1  0  0  0
 85 81  1  0  0  0
 81 82  2  0  0  0
 81 83  1  0  0  0
 83 79  1  0  0  0
 79 80  1  0  0  0
 79 75  1  0  0  0
 75 76  2  0  0  0
 75 77  1  0  0  0
 77 74  1  0  0  0
 74117  1  0  0  0
117118  1  0  0  0
 74 70  1  0  0  0
 70 71  2  0  0  0
 70 72  1  0  0  0
 72 69  1  0  0  0
 69120  1  0  0  0
120121  1  0  0  0
121122  2  0  0  0
122123  1  0  0  0
123124  2  0  0  0
124125  1  0  0  0
 69 65  1  0  0  0
 65 66  2  0  0  0
 65 67  1  0  0  0
 67  1  1  0  0  0
  1  2  1  0  0  0
  2  3  2  0  0  0
  3  4  1  0  0  0
  4  5  2  0  0  0
  5  6  1  0  0  0
  5  7  1  0  0  0
  7  8  2  0  0  0
  1 10  1  0  0  0
 10 11  2  0  0  0
 10 12  1  0  0  0
 12 14  1  0  0  0
 14 58  1  0  0  0
 58 59  1  0  0  0
 59 60  1  0  0  0
 60 61  1  0  0  0
 61 62  1  0  0  0
 14 15  1  0  0  0
 15 16  2  0  0  0
 15 17  1  0  0  0
 17 19  1  0  0  0
 19 51  1  0  0  0
 51 52  1  0  0  0
 52 53  1  0  0  0
 53 54  2  0  0  0
 53 55  1  0  0  0
 19 20  1  0  0  0
 20 21  2  0  0  0
 20 22  1  0  0  0
 22 24  1  0  0  0
 24 44  1  0  0  0
 44 45  1  0  0  0
 45 46  2  0  0  0
 46 47  1  0  0  0
 47 48  2  0  0  0
 48 49  1  0  0  0
 24 25  1  0  0  0
 25 26  2  0  0  0
 25 27  1  0  0  0
 27 29  1  0  0  0
 29 41  1  0  0  0
 41 42  1  0  0  0
 29 30  1  0  0  0
 30 31  2  0  0  0
 30 32  1  0  0  0
 32 33  1  0  0  0
 33 34  1  0  0  0
 34 35  1  0  0  0
 35 36  1  0  0  0
 36 37  1  0  0  0
 37 38  1  0  0  0
 37 39  2  0  0  0
 96 99  1  0  0  0
 99100  1  0  0  0
 99101  1  0  0  0
125121  1  0  0  0
  8  2  1  0  0  0
 49 45  1  0  0  0
 36 32  1  0  0  0
 95 97  1  0  0  0
 95 98  1  0  0  0
 93 94  1  0  0  0
107108  1  0  0  0
107109  1  0  0  0
 88 89  1  0  0  0
114115  1  0  0  0
114116  1  0  0  0
 83 84  1  0  0  0
 77 78  1  0  0  0
118119  1  0  0  0
 72 73  1  0  0  0
125126  1  0  0  0
 67 68  1  0  0  0
  6  9  1  0  0  0
 12 13  1  0  0  0
 62 63  1  0  0  0
 62 64  1  0  0  0
 17 18  1  0  0  0
 55 56  1  0  0  0
 55 57  1  0  0  0
 22 23  1  0  0  0
 49 50  1  0  0  0
 27 28  1  0  0  0
 42 43  1  0  0  0
 38 40  1  0  0  0
100102  1  0  0  0
M  END
> <minimizedAffinity>
-7.27624

$$$$



126129  0  0  0  0  0  0  0  0999 V2000
   68.6763  114.6242    7.9030 C   0  0  0  0  0  0  0  0  0  0  0  0
   67.9656  115.9092    7.5461 C   0  0  0  0  0  0  0  0  0  0  0  0
   66.6308  116.1288    7.9312 C   0  0  0  0  0  0  0  0  0  0  0  0
   66.0009  117.3407    7.6381 C   0  0  0  0  0  0  0  0  0  0  0  0
   66.6874  118.3418    6.9394 C   0  0  0  0  0  0  0  0  0  0  0  0
   66.0509  119.5491    6.6541 O   0  0  0  0  0  0  0  0  0  0  0  0
   68.0110  118.1251    6.5381 C   0  0  0  0  0  0  0  0  0  0  0  0
   68.6477  116.9190    6.8488 C   0  0  0  0  0  0  0  0  0  0  0  0
   66.5120  120.2702    6.1115 H   0  0  0  0  0  0  0  0  0  0  0  0
   69.7435  114.3058    6.8885 C   0  0  0  0  0  0  0  0  0  0  0  0
   70.9029  114.7816    7.0095 O   0  0  0  0  0  0  0  0  0  0  0  0
   69.4261  113.4898    5.7527 N   0  0  0  0  0  0  0  0  0  0  0  0
   68.8344  112.6456    5.9305 H   0  0  0  0  0  0  0  0  0  0  0  0
   69.5329  113.9349    4.3534 C   0  0  0  0  0  0  0  0  0  0  0  0
   68.1518  113.9829    3.7438 C   0  0  0  0  0  0  0  0  0  0  0  0
   67.2291  114.6468    4.2973 O   0  0  0  0  0  0  0  0  0  0  0  0
   67.8882  113.2574    2.5348 N   0  0  0  0  0  0  0  0  0  0  0  0
   68.7054  112.8989    1.9898 H   0  0  0  0  0  0  0  0  0  0  0  0
   66.5680  112.6824    2.2523 C   0  0  0  0  0  0  0  0  0  0  0  0
   65.8596  113.5146    1.2106 C   0  0  0  0  0  0  0  0  0  0  0  0
   64.6012  113.5037    1.1598 O   0  0  0  0  0  0  0  0  0  0  0  0
   66.6104  114.3656    0.3250 N   0  0  0  0  0  0  0  0  0  0  0  0
   67.6494  114.3964    0.4571 H   0  0  0  0  0  0  0  0  0  0  0  0
   65.9568  115.3753   -0.5244 C   0  0  0  0  0  0  0  0  0  0  0  0
   65.9867  114.9869   -1.9889 C   0  0  0  0  0  0  0  0  0  0  0  0
   66.9731  115.3254   -2.6982 O   0  0  0  0  0  0  0  0  0  0  0  0
   64.8598  114.3654   -2.6363 N   0  0  0  0  0  0  0  0  0  0  0  0
   64.6491  114.6972   -3.6074 H   0  0  0  0  0  0  0  0  0  0  0  0
   64.2028  113.1128   -2.2201 C   0  0  0  0  0  0  0  0  0  0  0  0
   62.7377  113.1017   -2.5945 C   0  0  0  0  0  0  0  0  0  0  0  0
   61.8734  112.7890   -1.7387 O   0  0  0  0  0  0  0  0  0  0  0  0
   62.3161  113.3169   -3.9483 N   0  0  0  0  0  0  0  0  0  0  0  0
   61.9244  114.6214   -4.4531 C   0  0  0  0  0  0  0  0  0  0  0  0
   61.1420  114.3493   -5.7295 C   0  0  0  0  0  0  0  0  0  0  0  0
   61.5145  112.9272   -6.1433 C   0  0  0  0  0  0  0  0  0  0  0  0
   61.9788  112.2328   -4.8619 C   0  0  0  0  0  0  0  0  0  0  0  0
   60.8926  111.3628   -4.2913 C   0  0  0  0  0  0  0  0  0  0  0  0
   61.2305  110.2449   -3.5421 O   0  0  0  0  0  0  0  0  0  0  0  0
   59.6816  111.6282   -4.5183 O   0  0  0  0  0  0  0  0  0  0  0  0
   60.5147  109.6379   -3.1617 H   0  0  0  0  0  0  0  0  0  0  0  0
   64.9684  111.8809   -2.7446 C   0  0  0  0  0  0  0  0  0  0  0  0
   64.6349  110.3901   -1.7462 S   0  0  0  0  0  0  0  0  0  0  0  0
   63.2470  110.4037   -1.9489 H   0  0  0  0  0  0  0  0  0  0  0  0
   66.6218  116.7514   -0.3046 C   0  0  0  0  0  0  0  0  0  0  0  0
   67.9438  116.6487    0.4117 C   0  0  0  0  0  0  0  0  0  0  0  0
   69.1188  116.1514   -0.1041 C   0  0  0  0  0  0  0  0  0  0  0  0
   70.0711  116.1896    0.8478 N   0  0  0  0  0  0  0  0  0  0  0  0
   69.4439  116.7016    1.9284 C   0  0  0  0  0  0  0  0  0  0  0  0
   68.1508  116.9913    1.6955 N   0  0  0  0  0  0  0  0  0  0  0  0
   67.4515  117.3563    2.3797 H   0  0  0  0  0  0  0  0  0  0  0  0
   66.7189  111.2305    1.7507 C   0  0  0  0  0  0  0  0  0  0  0  0
   67.4265  110.3265    2.7746 C   0  0  0  0  0  0  0  0  0  0  0  0
   66.5982  109.1125    3.0927 C   0  0  0  0  0  0  0  0  0  0  0  0
   66.0587  109.0003    4.2258 O   0  0  0  0  0  0  0  0  0  0  0  0
   66.4259  108.0786    2.1213 N   0  0  0  0  0  0  0  0  0  0  0  0
   65.8147  107.2573    2.3279 H   0  0  0  0  0  0  0  0  0  0  0  0
   66.9121  108.1180    1.1989 H   0  0  0  0  0  0  0  0  0  0  0  0
   70.5245  113.0900    3.5136 C   0  0  0  0  0  0  0  0  0  0  0  0
   70.8879  111.7591    4.1942 C   0  0  0  0  0  0  0  0  0  0  0  0
   72.2102  111.8269    4.9794 C   0  0  0  0  0  0  0  0  0  0  0  0
   72.5132  110.5906    5.8518 C   0  0  0  0  0  0  0  0  0  0  0  0
   71.3067  110.0143    6.4503 N   0  0  0  0  0  0  0  0  0  0  0  0
   70.7399  109.5577    5.6966 H   0  0  0  0  0  0  0  0  0  0  0  0
   70.7327  110.7767    6.8655 H   0  0  0  0  0  0  0  0  0  0  0  0
   69.2086  113.5740   10.1213 C   0  0  0  0  0  0  0  0  0  0  0  0
   68.1361  112.9314   10.2771 O   0  0  0  0  0  0  0  0  0  0  0  0
   69.2414  114.7097    9.2532 N   0  0  0  0  0  0  0  0  0  0  0  0
   69.8235  115.5360    9.5250 H   0  0  0  0  0  0  0  0  0  0  0  0
   70.4966  113.0319   10.6685 C   0  0  0  0  0  0  0  0  0  0  0  0
   70.8547  111.0753   12.2614 C   0  0  0  0  0  0  0  0  0  0  0  0
   70.1894  110.1782   12.8563 O   0  0  0  0  0  0  0  0  0  0  0  0
   70.1953  112.3016   11.9026 N   0  0  0  0  0  0  0  0  0  0  0  0
   69.2768  112.4833   12.3618 H   0  0  0  0  0  0  0  0  0  0  0  0
   72.3395  110.8906   12.0298 C   0  0  0  0  0  0  0  0  0  0  0  0
   72.6024  109.4458    9.9652 C   0  0  0  0  0  0  0  0  0  0  0  0
   71.9191  110.2509    9.2740 O   0  0  0  0  0  0  0  0  0  0  0  0
   72.6544  109.6035   11.3927 N   0  0  0  0  0  0  0  0  0  0  0  0
   72.9674  108.7874   11.9615 H   0  0  0  0  0  0  0  0  0  0  0  0
   73.3834  108.3320    9.3090 C   0  0  0  0  0  0  0  0  0  0  0  0
   74.5109  108.9288    8.4675 C   0  0  0  0  0  0  0  0  0  0  0  0
   72.7734  106.0601    8.3129 C   0  0  0  0  0  0  0  0  0  0  0  0
   73.8313  105.5425    8.7631 O   0  0  0  0  0  0  0  0  0  0  0  0
   72.5298  107.4682    8.4749 N   0  0  0  0  0  0  0  0  0  0  0  0
   71.6836  107.8539    8.0048 H   0  0  0  0  0  0  0  0  0  0  0  0
   71.7664  105.1902    7.6016 C   0  0  0  0  0  0  0  0  0  0  0  0
   71.8564  102.6772    7.9373 C   0  0  0  0  0  0  0  0  0  0  0  0
   71.2986  101.8103    7.2080 O   0  0  0  0  0  0  0  0  0  0  0  0
   72.3532  103.8744    7.3278 N   0  0  0  0  0  0  0  0  0  0  0  0
   72.8188  103.7501    6.4061 H   0  0  0  0  0  0  0  0  0  0  0  0
   72.1150  102.3361    9.3955 C   0  0  0  0  0  0  0  0  0  0  0  0
   71.1842  103.7980   11.2157 C   0  0  0  0  0  0  0  0  0  0  0  0
   70.8807  102.9100   12.0593 O   0  0  0  0  0  0  0  0  0  0  0  0
   72.1985  103.5281   10.2424 N   0  0  0  0  0  0  0  0  0  0  0  0
   73.0147  104.1734   10.1810 H   0  0  0  0  0  0  0  0  0  0  0  0
   69.0552  104.8718   10.6731 N   0  0  0  0  0  0  0  0  0  0  0  0
   70.4175  105.1030   11.1720 C   0  0  0  0  0  0  0  0  0  0  0  0
   68.5949  105.8013   10.5304 H   0  0  0  0  0  0  0  0  0  0  0  0
   69.1179  104.4383    9.7244 H   0  0  0  0  0  0  0  0  0  0  0  0
   70.4031  105.8045   12.5484 C   0  0  0  0  0  0  0  0  0  0  0  0
   70.7034  107.1688   12.3652 O   0  0  0  0  0  0  0  0  0  0  0  0
   69.0506  105.6739   13.2629 C   0  0  0  0  0  0  0  0  0  0  0  0
   70.9382  107.5334   13.2564 H   0  0  0  0  0  0  0  0  0  0  0  0
   73.3689  101.4589    9.5558 C   0  0  0  0  0  0  0  0  0  0  0  0
   74.5511  101.8890    8.6690 C   0  0  0  0  0  0  0  0  0  0  0  0
   75.1284  100.7359    7.8872 C   0  0  0  0  0  0  0  0  0  0  0  0
   76.3532  100.6900    7.6006 O   0  0  0  0  0  0  0  0  0  0  0  0
   74.2775   99.6675    7.4765 N   0  0  0  0  0  0  0  0  0  0  0  0
   74.6675   98.8559    6.9520 H   0  0  0  0  0  0  0  0  0  0  0  0
   73.2641   99.6616    7.7386 H   0  0  0  0  0  0  0  0  0  0  0  0
   71.1464  105.8092    6.3129 C   0  0  0  0  0  0  0  0  0  0  0  0
   69.6117  105.7630    6.1586 C   0  0  0  0  0  0  0  0  0  0  0  0
   68.8348  106.9087    6.7657 C   0  0  0  0  0  0  0  0  0  0  0  0
   67.6234  107.0367    6.4568 O   0  0  0  0  0  0  0  0  0  0  0  0
   69.4256  107.8780    7.6378 N   0  0  0  0  0  0  0  0  0  0  0  0
   70.4525  107.9436    7.7937 H   0  0  0  0  0  0  0  0  0  0  0  0
   68.8296  108.6321    8.0542 H   0  0  0  0  0  0  0  0  0  0  0  0
   73.0849  111.0284   13.3737 C   0  0  0  0  0  0  0  0  0  0  0  0
   72.4053  111.9059   14.2364 O   0  0  0  0  0  0  0  0  0  0  0  0
   71.7383  111.3556   14.7302 H   0  0  0  0  0  0  0  0  0  0  0  0
   71.5262  114.1473   10.9271 C   0  0  0  0  0  0  0  0  0  0  0  0
   72.7014  114.0058   10.0016 C   0  0  0  0  0  0  0  0  0  0  0  0
   73.8912  114.7054   10.0840 C   0  0  0  0  0  0  0  0  0  0  0  0
   74.6791  114.3571    9.0457 N   0  0  0  0  0  0  0  0  0  0  0  0
   73.9463  113.4508    8.3578 C   0  0  0  0  0  0  0  0  0  0  0  0
   72.7441  113.2119    8.9213 N   0  0  0  0  0  0  0  0  0  0  0  0
   72.0002  112.5747    8.5634 H   0  0  0  0  0  0  0  0  0  0  0  0
 95 96  1  0  0  0
 96 91  1  0  0  0
 91 92  2  0  0  0
 91 93  1  0  0  0
 93 90  1  0  0  0
 90103  1  0  0  0
103104  1  0  0  0
104105  1  0  0  0
105106  2  0  0  0
105107  1  0  0  0
 90 86  1  0  0  0
 86 87  2  0  0  0
 86 88  1  0  0  0
 88 85  1  0  0  0
 85110  1  0  0  0
110111  1  0  0  0
111112  1  0  0  0
112113  2  0  0  0
112114  1  0  0  0
 85 81  1  0  0  0
 81 82  2  0  0  0
 81 83  1  0  0  0
 83 79  1  0  0  0
 79 80  1  0  0  0
 79 75  1  0  0  0
 75 76  2  0  0  0
 75 77  1  0  0  0
 77 74  1  0  0  0
 74117  1  0  0  0
117118  1  0  0  0
 74 70  1  0  0  0
 70 71  2  0  0  0
 70 72  1  0  0  0
 72 69  1  0  0  0
 69120  1  0  0  0
120121  1  0  0  0
121122  2  0  0  0
122123  1  0  0  0
123124  2  0  0  0
124125  1  0  0  0
 69 65  1  0  0  0
 65 66  2  0  0  0
 65 67  1  0  0  0
 67  1  1  0  0  0
  1  2  1  0  0  0
  2  3  2  0  0  0
  3  4  1  0  0  0
  4  5  2  0  0  0
  5  6  1  0  0  0
  5  7  1  0  0  0
  7  8  2  0  0  0
  1 10  1  0  0  0
 10 11  2  0  0  0
 10 12  1  0  0  0
 12 14  1  0  0  0
 14 58  1  0  0  0
 58 59  1  0  0  0
 59 60  1  0  0  0
 60 61  1  0  0  0
 61 62  1  0  0  0
 14 15  1  0  0  0
 15 16  2  0  0  0
 15 17  1  0  0  0
 17 19  1  0  0  0
 19 51  1  0  0  0
 51 52  1  0  0  0
 52 53  1  0  0  0
 53 54  2  0  0  0
 53 55  1  0  0  0
 19 20  1  0  0  0
 20 21  2  0  0  0
 20 22  1  0  0  0
 22 24  1  0  0  0
 24 44  1  0  0  0
 44 45  1  0  0  0
 45 46  2  0  0  0
 46 47  1  0  0  0
 47 48  2  0  0  0
 48 49  1  0  0  0
 24 25  1  0  0  0
 25 26  2  0  0  0
 25 27  1  0  0  0
 27 29  1  0  0  0
 29 41  1  0  0  0
 41 42  1  0  0  0
 29 30  1  0  0  0
 30 31  2  0  0  0
 30 32  1  0  0  0
 32 33  1  0  0  0
 33 34  1  0  0  0
 34 35  1  0  0  0
 35 36  1  0  0  0
 36 37  1  0  0  0
 37 38  1  0  0  0
 37 39  2  0  0  0
 96 99  1  0  0  0
 99100  1  0  0  0
 99101  1  0  0  0
125121  1  0  0  0
  8  2  1  0  0  0
 49 45  1  0  0  0
 36 32  1  0  0  0
 95 97  1  0  0  0
 95 98  1  0  0  0
 93 94  1  0  0  0
107108  1  0  0  0
107109  1  0  0  0
 88 89  1  0  0  0
114115  1  0  0  0
114116  1  0  0  0
 83 84  1  0  0  0
 77 78  1  0  0  0
118119  1  0  0  0
 72 73  1  0  0  0
125126  1  0  0  0
 67 68  1  0  0  0
  6  9  1  0  0  0
 12 13  1  0  0  0
 62 63  1  0  0  0
 62 64  1  0  0  0
 17 18  1  0  0  0
 55 56  1  0  0  0
 55 57  1  0  0  0
 22 23  1  0  0  0
 49 50  1  0  0  0
 27 28  1  0  0  0
 42 43  1  0  0  0
 38 40  1  0  0  0
100102  1  0  0  0
M  END
> <minimizedAffinity>
-7.17362

$$$$



126129  0  0  0  0  0  0  0  0999 V2000
   68.8633  114.6949    7.7895 C   0  0  0  0  0  0  0  0  0  0  0  0
   68.0875  115.9502    7.4641 C   0  0  0  0  0  0  0  0  0  0  0  0
   66.7629  116.1174    7.9068 C   0  0  0  0  0  0  0  0  0  0  0  0
   66.0735  117.3030    7.6414 C   0  0  0  0  0  0  0  0  0  0  0  0
   66.6888  118.3294    6.9138 C   0  0  0  0  0  0  0  0  0  0  0  0
   65.9932  119.5101    6.6565 O   0  0  0  0  0  0  0  0  0  0  0  0
   68.0013  118.1646    6.4553 C   0  0  0  0  0  0  0  0  0  0  0  0
   68.6981  116.9851    6.7380 C   0  0  0  0  0  0  0  0  0  0  0  0
   66.4014  120.2480    6.0945 H   0  0  0  0  0  0  0  0  0  0  0  0
   69.7915  114.3339    6.6593 C   0  0  0  0  0  0  0  0  0  0  0  0
   70.9992  114.6892    6.6855 O   0  0  0  0  0  0  0  0  0  0  0  0
   69.2870  113.6173    5.5241 N   0  0  0  0  0  0  0  0  0  0  0  0
   68.6331  112.8247    5.7208 H   0  0  0  0  0  0  0  0  0  0  0  0
   69.3042  114.1283    4.1436 C   0  0  0  0  0  0  0  0  0  0  0  0
   67.8939  114.1375    3.6029 C   0  0  0  0  0  0  0  0  0  0  0  0
   66.9595  114.6822    4.2576 O   0  0  0  0  0  0  0  0  0  0  0  0
   67.6168  113.5107    2.3428 N   0  0  0  0  0  0  0  0  0  0  0  0
   68.4270  113.2614    1.7304 H   0  0  0  0  0  0  0  0  0  0  0  0
   66.3238  112.8750    2.0650 C   0  0  0  0  0  0  0  0  0  0  0  0
   65.6080  113.6282    0.9697 C   0  0  0  0  0  0  0  0  0  0  0  0
   64.3495  113.6085    0.9248 O   0  0  0  0  0  0  0  0  0  0  0  0
   66.3518  114.4174    0.0230 N   0  0  0  0  0  0  0  0  0  0  0  0
   67.3911  114.4618    0.1484 H   0  0  0  0  0  0  0  0  0  0  0  0
   65.6907  115.3615   -0.8933 C   0  0  0  0  0  0  0  0  0  0  0  0
   65.7392  114.8824   -2.3302 C   0  0  0  0  0  0  0  0  0  0  0  0
   66.7483  115.1507   -3.0375 O   0  0  0  0  0  0  0  0  0  0  0  0
   64.6090  114.2514   -2.9623 N   0  0  0  0  0  0  0  0  0  0  0  0
   64.4267  114.5276   -3.9563 H   0  0  0  0  0  0  0  0  0  0  0  0
   63.9100  113.0443   -2.4842 C   0  0  0  0  0  0  0  0  0  0  0  0
   62.4564  113.0412   -2.9007 C   0  0  0  0  0  0  0  0  0  0  0  0
   61.5664  112.7285   -2.0715 O   0  0  0  0  0  0  0  0  0  0  0  0
   62.0748  113.2641   -4.2651 N   0  0  0  0  0  0  0  0  0  0  0  0
   61.7033  114.5724   -4.7751 C   0  0  0  0  0  0  0  0  0  0  0  0
   60.9569  114.3093   -6.0747 C   0  0  0  0  0  0  0  0  0  0  0  0
   61.3352  112.8874   -6.4840 C   0  0  0  0  0  0  0  0  0  0  0  0
   61.7594  112.1855   -5.1928 C   0  0  0  0  0  0  0  0  0  0  0  0
   60.6536  111.3177   -4.6577 C   0  0  0  0  0  0  0  0  0  0  0  0
   60.9656  110.1816   -3.9247 O   0  0  0  0  0  0  0  0  0  0  0  0
   59.4498  111.6019   -4.8998 O   0  0  0  0  0  0  0  0  0  0  0  0
   60.2363  109.5760   -3.5683 H   0  0  0  0  0  0  0  0  0  0  0  0
   64.6599  111.7634   -2.9032 C   0  0  0  0  0  0  0  0  0  0  0  0
   64.1421  110.3140   -1.9225 S   0  0  0  0  0  0  0  0  0  0  0  0
   62.7866  110.3948   -2.2737 H   0  0  0  0  0  0  0  0  0  0  0  0
   66.3331  116.7588   -0.7553 C   0  0  0  0  0  0  0  0  0  0  0  0
   67.6324  116.7268    0.0076 C   0  0  0  0  0  0  0  0  0  0  0  0
   68.8270  116.2020   -0.4302 C   0  0  0  0  0  0  0  0  0  0  0  0
   69.7483  116.3254    0.5448 N   0  0  0  0  0  0  0  0  0  0  0  0
   69.0831  116.9153    1.5612 C   0  0  0  0  0  0  0  0  0  0  0  0
   67.7959  117.1723    1.2658 N   0  0  0  0  0  0  0  0  0  0  0  0
   67.0724  117.5833    1.8967 H   0  0  0  0  0  0  0  0  0  0  0  0
   66.5360  111.4064    1.6401 C   0  0  0  0  0  0  0  0  0  0  0  0
   67.3202  110.5995    2.6890 C   0  0  0  0  0  0  0  0  0  0  0  0
   66.6756  109.2647    2.9421 C   0  0  0  0  0  0  0  0  0  0  0  0
   66.2703  108.9730    4.0989 O   0  0  0  0  0  0  0  0  0  0  0  0
   66.5278  108.3191    1.8810 N   0  0  0  0  0  0  0  0  0  0  0  0
   66.0406  107.4105    2.0481 H   0  0  0  0  0  0  0  0  0  0  0  0
   66.9103  108.5113    0.9294 H   0  0  0  0  0  0  0  0  0  0  0  0
   70.2903  113.3694    3.2194 C   0  0  0  0  0  0  0  0  0  0  0  0
   70.6894  111.9956    3.7851 C   0  0  0  0  0  0  0  0  0  0  0  0
   72.1761  111.9155    4.1763 C   0  0  0  0  0  0  0  0  0  0  0  0
   72.4542  111.2632    5.5468 C   0  0  0  0  0  0  0  0  0  0  0  0
   71.3679  111.4815    6.5052 N   0  0  0  0  0  0  0  0  0  0  0  0
   70.5375  110.9144    6.2106 H   0  0  0  0  0  0  0  0  0  0  0  0
   71.0928  112.4850    6.4883 H   0  0  0  0  0  0  0  0  0  0  0  0
   69.5060  113.8713   10.0734 C   0  0  0  0  0  0  0  0  0  0  0  0
   68.3765  113.4460   10.4347 O   0  0  0  0  0  0  0  0  0  0  0  0
   69.6016  114.8606    9.0454 N   0  0  0  0  0  0  0  0  0  0  0  0
   70.3330  115.6049    9.1277 H   0  0  0  0  0  0  0  0  0  0  0  0
   70.7549  113.1958   10.5592 C   0  0  0  0  0  0  0  0  0  0  0  0
   71.0008  111.1736   12.0903 C   0  0  0  0  0  0  0  0  0  0  0  0
   70.2837  110.3106   12.6755 O   0  0  0  0  0  0  0  0  0  0  0  0
   70.4261  112.4544   11.7796 N   0  0  0  0  0  0  0  0  0  0  0  0
   69.5330  112.6893   12.2641 H   0  0  0  0  0  0  0  0  0  0  0  0
   72.4631  110.8879   11.8205 C   0  0  0  0  0  0  0  0  0  0  0  0
   72.7608  109.5504    9.6894 C   0  0  0  0  0  0  0  0  0  0  0  0
   72.2810  110.4882    8.9943 O   0  0  0  0  0  0  0  0  0  0  0  0
   72.6679  109.6104   11.1223 N   0  0  0  0  0  0  0  0  0  0  0  0
   72.7962  108.7237   11.6559 H   0  0  0  0  0  0  0  0  0  0  0  0
   73.4503  108.3767    9.0352 C   0  0  0  0  0  0  0  0  0  0  0  0
   74.2046  108.8564    7.7957 C   0  0  0  0  0  0  0  0  0  0  0  0
   72.8579  105.9124    8.7157 C   0  0  0  0  0  0  0  0  0  0  0  0
   74.0525  105.5652    8.9212 O   0  0  0  0  0  0  0  0  0  0  0  0
   72.5057  107.3060    8.6721 N   0  0  0  0  0  0  0  0  0  0  0  0
   71.5228  107.5324    8.4102 H   0  0  0  0  0  0  0  0  0  0  0  0
   71.8019  104.8535    8.5142 C   0  0  0  0  0  0  0  0  0  0  0  0
   72.1770  102.6623    9.7365 C   0  0  0  0  0  0  0  0  0  0  0  0
   71.5296  101.5929    9.5587 O   0  0  0  0  0  0  0  0  0  0  0  0
   72.4089  103.5223    8.6147 N   0  0  0  0  0  0  0  0  0  0  0  0
   72.6417  103.0434    7.7213 H   0  0  0  0  0  0  0  0  0  0  0  0
   72.8137  102.9039   11.0951 C   0  0  0  0  0  0  0  0  0  0  0  0
   73.9987  100.7717   11.7007 C   0  0  0  0  0  0  0  0  0  0  0  0
   75.1836  101.2024   11.7568 O   0  0  0  0  0  0  0  0  0  0  0  0
   72.9090  101.6798   11.8935 N   0  0  0  0  0  0  0  0  0  0  0  0
   72.2129  101.4714   12.6408 H   0  0  0  0  0  0  0  0  0  0  0  0
   73.6958   99.1691    9.8787 N   0  0  0  0  0  0  0  0  0  0  0  0
   73.7284   99.3265   11.3390 C   0  0  0  0  0  0  0  0  0  0  0  0
   73.3799   98.1952    9.6597 H   0  0  0  0  0  0  0  0  0  0  0  0
   72.9574   99.7998    9.4929 H   0  0  0  0  0  0  0  0  0  0  0  0
   74.7565   98.3726   11.9868 C   0  0  0  0  0  0  0  0  0  0  0  0
   74.0648   97.3115   12.6037 O   0  0  0  0  0  0  0  0  0  0  0  0
   75.7560   97.8038   10.9698 C   0  0  0  0  0  0  0  0  0  0  0  0
   74.7061   96.8675   13.2151 H   0  0  0  0  0  0  0  0  0  0  0  0
   72.0816  104.0116   11.8724 C   0  0  0  0  0  0  0  0  0  0  0  0
   70.5508  103.9798   11.7145 C   0  0  0  0  0  0  0  0  0  0  0  0
   69.9270  105.3378   11.9165 C   0  0  0  0  0  0  0  0  0  0  0  0
   68.7587  105.4585   12.3692 O   0  0  0  0  0  0  0  0  0  0  0  0
   70.6767  106.5105   11.6049 N   0  0  0  0  0  0  0  0  0  0  0  0
   70.2640  107.4550   11.7576 H   0  0  0  0  0  0  0  0  0  0  0  0
   71.6647  106.4379   11.2670 H   0  0  0  0  0  0  0  0  0  0  0  0
   70.9624  104.9924    7.2088 C   0  0  0  0  0  0  0  0  0  0  0  0
   69.5144  105.5103    7.3358 C   0  0  0  0  0  0  0  0  0  0  0  0
   69.2815  106.9632    6.9899 C   0  0  0  0  0  0  0  0  0  0  0  0
   68.9883  107.2533    5.8028 O   0  0  0  0  0  0  0  0  0  0  0  0
   69.4242  108.0249    7.9394 N   0  0  0  0  0  0  0  0  0  0  0  0
   69.8366  107.8838    8.8844 H   0  0  0  0  0  0  0  0  0  0  0  0
   69.2184  109.0104    7.6499 H   0  0  0  0  0  0  0  0  0  0  0  0
   73.2397  110.9092   13.1535 C   0  0  0  0  0  0  0  0  0  0  0  0
   73.4606  112.2290   13.5842 O   0  0  0  0  0  0  0  0  0  0  0  0
   72.6595  112.4903   14.1147 H   0  0  0  0  0  0  0  0  0  0  0  0
   71.8905  114.2032   10.8172 C   0  0  0  0  0  0  0  0  0  0  0  0
   73.0037  114.0087    9.8269 C   0  0  0  0  0  0  0  0  0  0  0  0
   74.2905  114.5019    9.9414 C   0  0  0  0  0  0  0  0  0  0  0  0
   74.9857  114.1788    8.8313 N   0  0  0  0  0  0  0  0  0  0  0  0
   74.1016  113.4941    8.0691 C   0  0  0  0  0  0  0  0  0  0  0  0
   72.8922  113.3683    8.6537 N   0  0  0  0  0  0  0  0  0  0  0  0
   72.0483  112.9050    8.2531 H   0  0  0  0  0  0  0  0  0  0  0  0
 95 96  1  0  0  0
 96 91  1  0  0  0
 91 92  2  0  0  0
 91 93  1  0  0  0
 93 90  1  0  0  0
 90103  1  0  0  0
103104  1  0  0  0
104105  1  0  0  0
105106  2  0  0  0
105107  1  0  0  0
 90 86  1  0  0  0
 86 87  2  0  0  0
 86 88  1  0  0  0
 88 85  1  0  0  0
 85110  1  0  0  0
110111  1  0  0  0
111112  1  0  0  0
112113  2  0  0  0
112114  1  0  0  0
 85 81  1  0  0  0
 81 82  2  0  0  0
 81 83  1  0  0  0
 83 79  1  0  0  0
 79 80  1  0  0  0
 79 75  1  0  0  0
 75 76  2  0  0  0
 75 77  1  0  0  0
 77 74  1  0  0  0
 74117  1  0  0  0
117118  1  0  0  0
 74 70  1  0  0  0
 70 71  2  0  0  0
 70 72  1  0  0  0
 72 69  1  0  0  0
 69120  1  0  0  0
120121  1  0  0  0
121122  2  0  0  0
122123  1  0  0  0
123124  2  0  0  0
124125  1  0  0  0
 69 65  1  0  0  0
 65 66  2  0  0  0
 65 67  1  0  0  0
 67  1  1  0  0  0
  1  2  1  0  0  0
  2  3  2  0  0  0
  3  4  1  0  0  0
  4  5  2  0  0  0
  5  6  1  0  0  0
  5  7  1  0  0  0
  7  8  2  0  0  0
  1 10  1  0  0  0
 10 11  2  0  0  0
 10 12  1  0  0  0
 12 14  1  0  0  0
 14 58  1  0  0  0
 58 59  1  0  0  0
 59 60  1  0  0  0
 60 61  1  0  0  0
 61 62  1  0  0  0
 14 15  1  0  0  0
 15 16  2  0  0  0
 15 17  1  0  0  0
 17 19  1  0  0  0
 19 51  1  0  0  0
 51 52  1  0  0  0
 52 53  1  0  0  0
 53 54  2  0  0  0
 53 55  1  0  0  0
 19 20  1  0  0  0
 20 21  2  0  0  0
 20 22  1  0  0  0
 22 24  1  0  0  0
 24 44  1  0  0  0
 44 45  1  0  0  0
 45 46  2  0  0  0
 46 47  1  0  0  0
 47 48  2  0  0  0
 48 49  1  0  0  0
 24 25  1  0  0  0
 25 26  2  0  0  0
 25 27  1  0  0  0
 27 29  1  0  0  0
 29 41  1  0  0  0
 41 42  1  0  0  0
 29 30  1  0  0  0
 30 31  2  0  0  0
 30 32  1  0  0  0
 32 33  1  0  0  0
 33 34  1  0  0  0
 34 35  1  0  0  0
 35 36  1  0  0  0
 36 37  1  0  0  0
 37 38  1  0  0  0
 37 39  2  0  0  0
 96 99  1  0  0  0
 99100  1  0  0  0
 99101  1  0  0  0
125121  1  0  0  0
  8  2  1  0  0  0
 49 45  1  0  0  0
 36 32  1  0  0  0
 95 97  1  0  0  0
 95 98  1  0  0  0
 93 94  1  0  0  0
107108  1  0  0  0
107109  1  0  0  0
 88 89  1  0  0  0
114115  1  0  0  0
114116  1  0  0  0
 83 84  1  0  0  0
 77 78  1  0  0  0
118119  1  0  0  0
 72 73  1  0  0  0
125126  1  0  0  0
 67 68  1  0  0  0
  6  9  1  0  0  0
 12 13  1  0  0  0
 62 63  1  0  0  0
 62 64  1  0  0  0
 17 18  1  0  0  0
 55 56  1  0  0  0
 55 57  1  0  0  0
 22 23  1  0  0  0
 49 50  1  0  0  0
 27 28  1  0  0  0
 42 43  1  0  0  0
 38 40  1  0  0  0
100102  1  0  0  0
M  END
> <minimizedAffinity>
-7.09720

$$$$
