


126129  0  0  0  0  0  0  0  0999 V2000
   40.4899  112.2027   27.9291 C   0  0  0  0  0  0  0  0  0  0  0  0
   40.7700  113.1417   27.7300 C   0  0  0  0  0  0  0  0  0  0  0  0
   40.1451  113.9000   27.9161 C   0  0  0  0  0  0  0  0  0  0  0  0
   40.4253  114.8391   27.7169 C   0  0  0  0  0  0  0  0  0  0  0  0
   41.3302  115.0199   27.3317 C   0  0  0  0  0  0  0  0  0  0  0  0
   41.6103  115.9590   27.1326 O   0  0  0  0  0  0  0  0  0  0  0  0
   41.9550  114.2617   27.1456 C   0  0  0  0  0  0  0  0  0  0  0  0
   41.6750  113.3226   27.3447 C   0  0  0  0  0  0  0  0  0  0  0  0
   41.0248  116.6695   27.3069 H   0  0  0  0  0  0  0  0  0  0  0  0
   39.7049  111.8039   27.4550 C   0  0  0  0  0  0  0  0  0  0  0  0
   39.8375  111.0402   26.8232 O   0  0  0  0  0  0  0  0  0  0  0  0
   38.7874  112.1687   27.6128 N   0  0  0  0  0  0  0  0  0  0  0  0
   38.6568  112.9206   28.2348 H   0  0  0  0  0  0  0  0  0  0  0  0
   38.0023  111.7699   27.1387 C   0  0  0  0  0  0  0  0  0  0  0  0
   37.3703  111.1729   27.6327 C   0  0  0  0  0  0  0  0  0  0  0  0
   36.8468  110.4797   27.1373 O   0  0  0  0  0  0  0  0  0  0  0  0
   37.2618  111.2690   28.6222 N   0  0  0  0  0  0  0  0  0  0  0  0
   37.7773  111.9514   29.1098 H   0  0  0  0  0  0  0  0  0  0  0  0
   36.6299  110.6719   29.1162 C   0  0  0  0  0  0  0  0  0  0  0  0
   35.8180  111.0570   29.5550 C   0  0  0  0  0  0  0  0  0  0  0  0
   35.8368  111.2863   30.5281 O   0  0  0  0  0  0  0  0  0  0  0  0
   34.9871  111.2128   29.0206 N   0  0  0  0  0  0  0  0  0  0  0  0
   34.9686  110.9870   28.0625 H   0  0  0  0  0  0  0  0  0  0  0  0
   34.1753  111.5978   29.4594 C   0  0  0  0  0  0  0  0  0  0  0  0
   33.4532  110.9924   29.7941 C   0  0  0  0  0  0  0  0  0  0  0  0
   32.6832  111.3695   30.3087 O   0  0  0  0  0  0  0  0  0  0  0  0
   33.5011  110.0099   29.6141 N   0  0  0  0  0  0  0  0  0  0  0  0
   34.2592  109.6387   29.1074 H   0  0  0  0  0  0  0  0  0  0  0  0
   32.7790  109.4045   29.9488 C   0  0  0  0  0  0  0  0  0  0  0  0
   32.1390  108.9858   29.3045 C   0  0  0  0  0  0  0  0  0  0  0  0
   31.1745  109.2494   29.3152 O   0  0  0  0  0  0  0  0  0  0  0  0
   32.4636  108.3033   28.6495 N   0  0  0  0  0  0  0  0  0  0  0  0
   33.4039  107.9747   28.5605 C   0  0  0  0  0  0  0  0  0  0  0  0
   33.4262  107.2980   27.8245 C   0  0  0  0  0  0  0  0  0  0  0  0
   32.4998  107.2085   27.4587 C   0  0  0  0  0  0  0  0  0  0  0  0
   31.9049  107.8298   27.9686 C   0  0  0  0  0  0  0  0  0  0  0  0
   30.9236  107.9556   27.8231 C   0  0  0  0  0  0  0  0  0  0  0  0
   30.5974  108.6692   27.2032 O   0  0  0  0  0  0  0  0  0  0  0  0
   30.2684  107.3677   28.2976 O   0  0  0  0  0  0  0  0  0  0  0  0
   31.2113  109.2201   26.7586 H   0  0  0  0  0  0  0  0  0  0  0  0
   32.6969  109.2177   30.9278 C   0  0  0  0  0  0  0  0  0  0  0  0
   33.3592  108.6205   31.3802 S   0  0  0  0  0  0  0  0  0  0  0  0
   34.3717  108.0622   30.6640 H   0  0  0  0  0  0  0  0  0  0  0  0
   34.0855  112.5883   29.5635 C   0  0  0  0  0  0  0  0  0  0  0  0
   34.0538  113.1753   28.7545 C   0  0  0  0  0  0  0  0  0  0  0  0
   34.7416  113.8522   28.4921 C   0  0  0  0  0  0  0  0  0  0  0  0
   34.4417  114.2837   27.6413 N   0  0  0  0  0  0  0  0  0  0  0  0
   33.5686  113.8734   27.3777 C   0  0  0  0  0  0  0  0  0  0  0  0
   33.3290  113.1883   28.0657 N   0  0  0  0  0  0  0  0  0  0  0  0
   32.5211  112.6256   28.0650 H   0  0  0  0  0  0  0  0  0  0  0  0
   36.8098  109.6898   29.1715 C   0  0  0  0  0  0  0  0  0  0  0  0
   37.2901  109.3132   29.9636 C   0  0  0  0  0  0  0  0  0  0  0  0
   37.3580  108.3227   30.0827 C   0  0  0  0  0  0  0  0  0  0  0  0
   36.9626  107.8881   30.8920 O   0  0  0  0  0  0  0  0  0  0  0  0
   37.8214  107.7667   29.3926 N   0  0  0  0  0  0  0  0  0  0  0  0
   38.2106  108.1946   28.5960 H   0  0  0  0  0  0  0  0  0  0  0  0
   37.8883  106.7915   29.5099 H   0  0  0  0  0  0  0  0  0  0  0  0
   37.8493  111.9683   26.1706 C   0  0  0  0  0  0  0  0  0  0  0  0
   37.2636  112.7336   25.9034 C   0  0  0  0  0  0  0  0  0  0  0  0
   37.1988  113.0018   24.9423 C   0  0  0  0  0  0  0  0  0  0  0  0
   36.3023  113.1112   24.5130 C   0  0  0  0  0  0  0  0  0  0  0  0
   35.8170  113.9826   24.5840 N   0  0  0  0  0  0  0  0  0  0  0  0
   36.2364  114.7600   25.0942 H   0  0  0  0  0  0  0  0  0  0  0  0
   34.9025  114.0942   24.1461 H   0  0  0  0  0  0  0  0  0  0  0  0
   40.7303  111.6908   29.5662 C   0  0  0  0  0  0  0  0  0  0  0  0
   39.9608  112.2596   29.8571 O   0  0  0  0  0  0  0  0  0  0  0  0
   40.9948  111.6624   28.6023 N   0  0  0  0  0  0  0  0  0  0  0  0
   41.7523  111.1025   28.3160 H   0  0  0  0  0  0  0  0  0  0  0  0
   41.2352  111.1506   30.2394 C   0  0  0  0  0  0  0  0  0  0  0  0
   42.8409  111.7040   30.5789 C   0  0  0  0  0  0  0  0  0  0  0  0
   42.4663  112.4755   31.0932 O   0  0  0  0  0  0  0  0  0  0  0  0
   42.2253  111.0416   30.1521 N   0  0  0  0  0  0  0  0  0  0  0  0
   42.5941  110.2820   29.6458 H   0  0  0  0  0  0  0  0  0  0  0  0
   43.8311  111.5950   30.4916 C   0  0  0  0  0  0  0  0  0  0  0  0
   45.0030  112.0913   29.3167 C   0  0  0  0  0  0  0  0  0  0  0  0
   45.0819  111.1472   28.9967 O   0  0  0  0  0  0  0  0  0  0  0  0
   44.3776  112.3152   30.0642 N   0  0  0  0  0  0  0  0  0  0  0  0
   44.2999  113.2446   30.3793 H   0  0  0  0  0  0  0  0  0  0  0  0
   45.5495  112.8114   28.8893 C   0  0  0  0  0  0  0  0  0  0  0  0
   45.1581  113.3678   28.1564 C   0  0  0  0  0  0  0  0  0  0  0  0
   47.1679  113.3287   28.5529 C   0  0  0  0  0  0  0  0  0  0  0  0
   46.9102  113.5185   27.6054 O   0  0  0  0  0  0  0  0  0  0  0  0
   46.4875  112.9752   29.1948 N   0  0  0  0  0  0  0  0  0  0  0  0
   46.7411  112.7883   30.1275 H   0  0  0  0  0  0  0  0  0  0  0  0
   48.1059  113.4925   28.8583 C   0  0  0  0  0  0  0  0  0  0  0  0
   48.4896  114.8670   29.8399 C   0  0  0  0  0  0  0  0  0  0  0  0
   48.5335  115.4394   29.0212 O   0  0  0  0  0  0  0  0  0  0  0  0
   48.2758  113.8935   29.7585 N   0  0  0  0  0  0  0  0  0  0  0  0
   48.2326  113.3299   30.5645 H   0  0  0  0  0  0  0  0  0  0  0  0
   48.6594  115.2680   30.7401 C   0  0  0  0  0  0  0  0  0  0  0  0
   47.2853  115.4302   31.7819 C   0  0  0  0  0  0  0  0  0  0  0  0
   46.9659  116.2074   31.2397 O   0  0  0  0  0  0  0  0  0  0  0  0
   48.1320  114.9605   31.5321 N   0  0  0  0  0  0  0  0  0  0  0  0
   48.4464  114.1953   32.0658 H   0  0  0  0  0  0  0  0  0  0  0  0
   46.9993  115.4423   33.4902 N   0  0  0  0  0  0  0  0  0  0  0  0
   46.7578  115.1226   32.5739 C   0  0  0  0  0  0  0  0  0  0  0  0
   46.4614  115.1286   34.2980 H   0  0  0  0  0  0  0  0  0  0  0  0
   47.7837  116.0821   33.6169 H   0  0  0  0  0  0  0  0  0  0  0  0
   45.9890  114.4955   32.4497 C   0  0  0  0  0  0  0  0  0  0  0  0
   46.1570  113.5412   32.2025 O   0  0  0  0  0  0  0  0  0  0  0  0
   45.0520  114.8226   32.5726 C   0  0  0  0  0  0  0  0  0  0  0  0
   47.0659  113.2239   32.0833 H   0  0  0  0  0  0  0  0  0  0  0  0
   49.3567  115.9766   30.8483 C   0  0  0  0  0  0  0  0  0  0  0  0
   50.2995  115.7216   31.0629 C   0  0  0  0  0  0  0  0  0  0  0  0
   50.9592  116.4243   31.3296 C   0  0  0  0  0  0  0  0  0  0  0  0
   50.6970  117.1340   31.9834 O   0  0  0  0  0  0  0  0  0  0  0  0
   51.8812  116.4172   30.9424 N   0  0  0  0  0  0  0  0  0  0  0  0
   52.1394  115.7184   30.2988 H   0  0  0  0  0  0  0  0  0  0  0  0
   52.5307  117.1089   31.2050 H   0  0  0  0  0  0  0  0  0  0  0  0
   48.8741  113.2553   28.2636 C   0  0  0  0  0  0  0  0  0  0  0  0
   49.5096  112.5316   28.5325 C   0  0  0  0  0  0  0  0  0  0  0  0
   50.3215  112.3478   27.9784 C   0  0  0  0  0  0  0  0  0  0  0  0
   50.7991  111.4736   28.0657 O   0  0  0  0  0  0  0  0  0  0  0  0
   50.6559  113.0384   27.3370 N   0  0  0  0  0  0  0  0  0  0  0  0
   50.1857  113.8991   27.2510 H   0  0  0  0  0  0  0  0  0  0  0  0
   51.4552  112.8575   26.7915 H   0  0  0  0  0  0  0  0  0  0  0  0
   44.2747  110.7659   30.8316 C   0  0  0  0  0  0  0  0  0  0  0  0
   44.5065  110.6844   31.8010 O   0  0  0  0  0  0  0  0  0  0  0  0
   44.9369  109.8800   32.1308 H   0  0  0  0  0  0  0  0  0  0  0  0
   40.7498  110.7193   31.0001 C   0  0  0  0  0  0  0  0  0  0  0  0
   40.7584  109.7242   31.0988 C   0  0  0  0  0  0  0  0  0  0  0  0
   40.9056  109.0620   30.3641 C   0  0  0  0  0  0  0  0  0  0  0  0
   40.8595  108.1451   30.7608 N   0  0  0  0  0  0  0  0  0  0  0  0
   40.6840  108.2408   31.7406 C   0  0  0  0  0  0  0  0  0  0  0  0
   40.6215  109.2168   31.9494 N   0  0  0  0  0  0  0  0  0  0  0  0
   40.4545  109.6091   32.8368 H   0  0  0  0  0  0  0  0  0  0  0  0
 95 96  1  0  0  0
 95 97  1  0  0  0
 95 98  1  0  0  0
 96 91  1  0  0  0
 96 99  1  0  0  0
 91 92  2  0  0  0
 91 93  1  0  0  0
 93 90  1  0  0  0
 93 94  1  0  0  0
 90103  1  0  0  0
 90 86  1  0  0  0
103104  1  0  0  0
104105  1  0  0  0
105106  2  0  0  0
105107  1  0  0  0
107108  1  0  0  0
107109  1  0  0  0
 86 87  2  0  0  0
 86 88  1  0  0  0
 88 85  1  0  0  0
 88 89  1  0  0  0
 85110  1  0  0  0
 85 81  1  0  0  0
110111  1  0  0  0
111112  1  0  0  0
112113  2  0  0  0
112114  1  0  0  0
114115  1  0  0  0
114116  1  0  0  0
 81 82  2  0  0  0
 81 83  1  0  0  0
 83 79  1  0  0  0
 83 84  1  0  0  0
 79 80  1  0  0  0
 79 75  1  0  0  0
 75 76  2  0  0  0
 75 77  1  0  0  0
 77 74  1  0  0  0
 77 78  1  0  0  0
 74117  1  0  0  0
 74 70  1  0  0  0
117118  1  0  0  0
118119  1  0  0  0
 70 71  2  0  0  0
 70 72  1  0  0  0
 72 69  1  0  0  0
 72 73  1  0  0  0
 69120  1  0  0  0
 69 65  1  0  0  0
120121  1  0  0  0
121125  1  0  0  0
121122  2  0  0  0
122123  1  0  0  0
123124  2  0  0  0
124125  1  0  0  0
125126  1  0  0  0
 65 66  2  0  0  0
 65 67  1  0  0  0
 67  1  1  0  0  0
 67 68  1  0  0  0
  1  2  1  0  0  0
  1 10  1  0  0  0
  2  8  2  0  0  0
  2  3  1  0  0  0
  3  4  2  0  0  0
  4  5  1  0  0  0
  5  6  1  0  0  0
  5  7  2  0  0  0
  6  9  1  0  0  0
  7  8  1  0  0  0
 10 11  2  0  0  0
 10 12  1  0  0  0
 12 14  1  0  0  0
 12 13  1  0  0  0
 14 58  1  0  0  0
 14 15  1  0  0  0
 58 59  1  0  0  0
 59 60  1  0  0  0
 60 61  1  0  0  0
 61 62  1  0  0  0
 62 63  1  0  0  0
 62 64  1  0  0  0
 15 16  2  0  0  0
 15 17  1  0  0  0
 17 19  1  0  0  0
 17 18  1  0  0  0
 19 51  1  0  0  0
 19 20  1  0  0  0
 51 52  1  0  0  0
 52 53  1  0  0  0
 53 54  2  0  0  0
 53 55  1  0  0  0
 55 56  1  0  0  0
 55 57  1  0  0  0
 20 21  2  0  0  0
 20 22  1  0  0  0
 22 24  1  0  0  0
 22 23  1  0  0  0
 24 44  1  0  0  0
 24 25  1  0  0  0
 44 45  1  0  0  0
 45 49  1  0  0  0
 45 46  2  0  0  0
 46 47  1  0  0  0
 47 48  2  0  0  0
 48 49  1  0  0  0
 49 50  1  0  0  0
 25 26  2  0  0  0
 25 27  1  0  0  0
 27 29  1  0  0  0
 27 28  1  0  0  0
 29 41  1  0  0  0
 29 30  1  0  0  0
 41 42  1  0  0  0
 42 43  1  0  0  0
 30 31  2  0  0  0
 30 32  1  0  0  0
 32 36  1  0  0  0
 32 33  1  0  0  0
 33 34  1  0  0  0
 34 35  1  0  0  0
 35 36  1  0  0  0
 36 37  1  0  0  0
 37 38  1  0  0  0
 37 39  2  0  0  0
 38 40  1  0  0  0
 99100  1  0  0  0
 99101  1  0  0  0
100102  1  0  0  0
M  END
> <minimizedAffinity>
-8.27826

$$$$



126129  0  0  0  0  0  0  0  0999 V2000
   42.8925  112.5310   29.0270 C   0  0  0  0  0  0  0  0  0  0  0  0
   42.4299  113.2868   28.5637 C   0  0  0  0  0  0  0  0  0  0  0  0
   41.7868  113.8635   29.0676 C   0  0  0  0  0  0  0  0  0  0  0  0
   41.3241  114.6194   28.6043 C   0  0  0  0  0  0  0  0  0  0  0  0
   41.5047  114.7987   27.6372 C   0  0  0  0  0  0  0  0  0  0  0  0
   41.0421  115.5546   27.1740 O   0  0  0  0  0  0  0  0  0  0  0  0
   42.1479  114.2221   27.1334 C   0  0  0  0  0  0  0  0  0  0  0  0
   42.6105  113.4662   27.5966 C   0  0  0  0  0  0  0  0  0  0  0  0
   40.4394  116.0949   27.6461 H   0  0  0  0  0  0  0  0  0  0  0  0
   42.3616  111.8683   29.5552 C   0  0  0  0  0  0  0  0  0  0  0  0
   41.9343  112.1429   30.4166 O   0  0  0  0  0  0  0  0  0  0  0  0
   42.2580  110.9312   29.2220 N   0  0  0  0  0  0  0  0  0  0  0  0
   42.6787  110.6610   28.3739 H   0  0  0  0  0  0  0  0  0  0  0  0
   41.7270  110.2685   29.7503 C   0  0  0  0  0  0  0  0  0  0  0  0
   40.7604  110.1214   29.5407 C   0  0  0  0  0  0  0  0  0  0  0  0
   40.1302  109.8354   30.2625 O   0  0  0  0  0  0  0  0  0  0  0  0
   40.4240  110.2601   28.6093 N   0  0  0  0  0  0  0  0  0  0  0  0
   41.0444  110.5417   27.8987 H   0  0  0  0  0  0  0  0  0  0  0  0
   39.4573  110.1130   28.3997 C   0  0  0  0  0  0  0  0  0  0  0  0
   38.7988  110.8538   28.5315 C   0  0  0  0  0  0  0  0  0  0  0  0
   39.0979  111.8059   28.4680 O   0  0  0  0  0  0  0  0  0  0  0  0
   37.8410  110.6426   28.7269 N   0  0  0  0  0  0  0  0  0  0  0  0
   37.5465  109.7053   28.7894 H   0  0  0  0  0  0  0  0  0  0  0  0
   37.1824  111.3835   28.8587 C   0  0  0  0  0  0  0  0  0  0  0  0
   36.6266  111.7009   28.0904 C   0  0  0  0  0  0  0  0  0  0  0  0
   36.1062  111.0441   27.5448 O   0  0  0  0  0  0  0  0  0  0  0  0
   36.5911  112.6752   27.8678 N   0  0  0  0  0  0  0  0  0  0  0  0
   37.1035  113.3218   28.4051 H   0  0  0  0  0  0  0  0  0  0  0  0
   36.0353  112.9926   27.0996 C   0  0  0  0  0  0  0  0  0  0  0  0
   36.4472  113.0985   26.1945 C   0  0  0  0  0  0  0  0  0  0  0  0
   36.1675  112.4991   25.4446 O   0  0  0  0  0  0  0  0  0  0  0  0
   37.1389  113.8040   26.0394 N   0  0  0  0  0  0  0  0  0  0  0  0
   37.4836  114.4491   26.7213 C   0  0  0  0  0  0  0  0  0  0  0  0
   38.1649  115.0319   26.2784 C   0  0  0  0  0  0  0  0  0  0  0  0
   38.2413  114.7470   25.3230 C   0  0  0  0  0  0  0  0  0  0  0  0
   37.6071  113.9881   25.1752 C   0  0  0  0  0  0  0  0  0  0  0  0
   37.4660  113.4991   24.3145 C   0  0  0  0  0  0  0  0  0  0  0  0
   37.9446  112.6377   24.1445 O   0  0  0  0  0  0  0  0  0  0  0  0
   36.8462  113.8716   23.6236 O   0  0  0  0  0  0  0  0  0  0  0  0
   38.5253  112.2887   24.7917 H   0  0  0  0  0  0  0  0  0  0  0  0
   35.0675  113.2042   27.2363 C   0  0  0  0  0  0  0  0  0  0  0  0
   34.8013  113.9851   27.8013 S   0  0  0  0  0  0  0  0  0  0  0  0
   35.7555  114.7595   28.3839 H   0  0  0  0  0  0  0  0  0  0  0  0
   37.0796  111.8069   29.7588 C   0  0  0  0  0  0  0  0  0  0  0  0
   36.7788  111.2575   30.5384 C   0  0  0  0  0  0  0  0  0  0  0  0
   35.8382  110.9800   30.7339 C   0  0  0  0  0  0  0  0  0  0  0  0
   35.8438  110.4403   31.5756 N   0  0  0  0  0  0  0  0  0  0  0  0
   36.7880  110.3841   31.9004 C   0  0  0  0  0  0  0  0  0  0  0  0
   37.3658  110.8892   31.2593 N   0  0  0  0  0  0  0  0  0  0  0  0
   38.3414  111.0038   31.3263 H   0  0  0  0  0  0  0  0  0  0  0  0
   39.1493  109.2250   28.0583 C   0  0  0  0  0  0  0  0  0  0  0  0
   39.6446  108.7760   27.3147 C   0  0  0  0  0  0  0  0  0  0  0  0
   39.6490  107.7782   27.2476 C   0  0  0  0  0  0  0  0  0  0  0  0
   40.5153  107.2871   27.1557 O   0  0  0  0  0  0  0  0  0  0  0  0
   38.7872  107.2717   27.2725 N   0  0  0  0  0  0  0  0  0  0  0  0
   37.9344  107.7553   27.3630 H   0  0  0  0  0  0  0  0  0  0  0  0
   38.7915  106.2894   27.2065 H   0  0  0  0  0  0  0  0  0  0  0  0
   42.1628  109.7530   30.4881 C   0  0  0  0  0  0  0  0  0  0  0  0
   42.8134  109.0247   30.2726 C   0  0  0  0  0  0  0  0  0  0  0  0
   43.1084  108.3903   30.9871 C   0  0  0  0  0  0  0  0  0  0  0  0
   43.9157  107.8176   30.8451 C   0  0  0  0  0  0  0  0  0  0  0  0
   43.8782  107.0504   30.2048 N   0  0  0  0  0  0  0  0  0  0  0  0
   43.0163  106.8520   29.6965 H   0  0  0  0  0  0  0  0  0  0  0  0
   44.7017  106.4662   30.0600 H   0  0  0  0  0  0  0  0  0  0  0  0
   44.4661  112.7236   29.7247 C   0  0  0  0  0  0  0  0  0  0  0  0
   44.0526  113.1029   30.5525 O   0  0  0  0  0  0  0  0  0  0  0  0
   43.8860  112.4377   28.9620 N   0  0  0  0  0  0  0  0  0  0  0  0
   44.2931  112.0643   28.1470 H   0  0  0  0  0  0  0  0  0  0  0  0
   45.4596  112.6304   29.6597 C   0  0  0  0  0  0  0  0  0  0  0  0
   46.1927  111.3328   30.5422 C   0  0  0  0  0  0  0  0  0  0  0  0
   45.8771  110.6837   29.8500 O   0  0  0  0  0  0  0  0  0  0  0  0
   45.9839  112.3061   30.4470 N   0  0  0  0  0  0  0  0  0  0  0  0
   46.2946  112.9452   31.1284 H   0  0  0  0  0  0  0  0  0  0  0  0
   46.7170  111.0086   31.3295 C   0  0  0  0  0  0  0  0  0  0  0  0
   48.2815  111.6510   31.7032 C   0  0  0  0  0  0  0  0  0  0  0  0
   48.6970  111.0204   31.0477 O   0  0  0  0  0  0  0  0  0  0  0  0
   47.2915  111.6451   31.8441 N   0  0  0  0  0  0  0  0  0  0  0  0
   46.8824  112.2659   32.4894 H   0  0  0  0  0  0  0  0  0  0  0  0
   48.8560  112.2875   32.2178 C   0  0  0  0  0  0  0  0  0  0  0  0
   49.8424  112.1345   32.2776 C   0  0  0  0  0  0  0  0  0  0  0  0
   48.6119  113.9990   32.3235 C   0  0  0  0  0  0  0  0  0  0  0  0
   49.1917  114.1313   31.5195 O   0  0  0  0  0  0  0  0  0  0  0  0
   48.4441  113.0771   32.6727 N   0  0  0  0  0  0  0  0  0  0  0  0
   47.8733  112.9468   33.4642 H   0  0  0  0  0  0  0  0  0  0  0  0
   48.2000  114.7887   32.7783 C   0  0  0  0  0  0  0  0  0  0  0  0
   49.2564  115.8331   33.6690 C   0  0  0  0  0  0  0  0  0  0  0  0
   49.2919  115.1641   34.4113 O   0  0  0  0  0  0  0  0  0  0  0  0
   48.7104  115.6454   32.8525 N   0  0  0  0  0  0  0  0  0  0  0  0
   48.6754  116.3040   32.1216 H   0  0  0  0  0  0  0  0  0  0  0  0
   49.7668  116.6898   33.7431 C   0  0  0  0  0  0  0  0  0  0  0  0
   51.1980  117.0101   32.8217 C   0  0  0  0  0  0  0  0  0  0  0  0
   50.6359  117.3367   32.0619 O   0  0  0  0  0  0  0  0  0  0  0  0
   50.7635  116.6866   33.6623 N   0  0  0  0  0  0  0  0  0  0  0  0
   51.3169  116.3651   34.4103 H   0  0  0  0  0  0  0  0  0  0  0  0
   52.7467  117.5883   33.3386 N   0  0  0  0  0  0  0  0  0  0  0  0
   52.1948  117.0068   32.7409 C   0  0  0  0  0  0  0  0  0  0  0  0
   53.7634  117.5851   33.2563 H   0  0  0  0  0  0  0  0  0  0  0  0
   52.2930  118.1848   34.0306 H   0  0  0  0  0  0  0  0  0  0  0  0
   52.6396  116.4221   32.0625 C   0  0  0  0  0  0  0  0  0  0  0  0
   52.5371  115.4288   32.1145 O   0  0  0  0  0  0  0  0  0  0  0  0
   53.1869  116.8308   31.3322 C   0  0  0  0  0  0  0  0  0  0  0  0
   52.0062  115.0324   32.8229 H   0  0  0  0  0  0  0  0  0  0  0  0
   49.2805  117.5498   33.8980 C   0  0  0  0  0  0  0  0  0  0  0  0
   49.1165  117.8703   34.8309 C   0  0  0  0  0  0  0  0  0  0  0  0
   49.0712  118.8509   35.0220 C   0  0  0  0  0  0  0  0  0  0  0  0
   49.9096  119.3633   35.2081 O   0  0  0  0  0  0  0  0  0  0  0  0
   48.1876  119.3191   35.0269 N   0  0  0  0  0  0  0  0  0  0  0  0
   47.3623  118.8147   34.8436 H   0  0  0  0  0  0  0  0  0  0  0  0
   48.1431  120.2844   35.2150 H   0  0  0  0  0  0  0  0  0  0  0  0
   47.2778  114.7216   33.1590 C   0  0  0  0  0  0  0  0  0  0  0  0
   46.5123  115.1694   32.6969 C   0  0  0  0  0  0  0  0  0  0  0  0
   45.6040  115.1649   33.1151 C   0  0  0  0  0  0  0  0  0  0  0  0
   45.4982  115.3922   34.0832 O   0  0  0  0  0  0  0  0  0  0  0  0
   44.8015  114.9331   32.5653 N   0  0  0  0  0  0  0  0  0  0  0  0
   44.9057  114.7092   31.6122 H   0  0  0  0  0  0  0  0  0  0  0  0
   43.9072  114.9286   32.9771 H   0  0  0  0  0  0  0  0  0  0  0  0
   46.6669  110.0478   31.6023 C   0  0  0  0  0  0  0  0  0  0  0  0
   46.1182  109.7809   32.3945 O   0  0  0  0  0  0  0  0  0  0  0  0
   46.0695  108.8489   32.6591 H   0  0  0  0  0  0  0  0  0  0  0  0
   45.9287  112.8613   28.8072 C   0  0  0  0  0  0  0  0  0  0  0  0
   46.6417  113.5625   28.8030 C   0  0  0  0  0  0  0  0  0  0  0  0
   47.5362  113.4886   28.3623 C   0  0  0  0  0  0  0  0  0  0  0  0
   48.0327  114.3412   28.5257 N   0  0  0  0  0  0  0  0  0  0  0  0
   47.4448  114.9421   29.0674 C   0  0  0  0  0  0  0  0  0  0  0  0
   46.5852  114.4608   29.2388 N   0  0  0  0  0  0  0  0  0  0  0  0
   45.8179  114.8100   29.7473 H   0  0  0  0  0  0  0  0  0  0  0  0
 95 96  1  0  0  0
 95 97  1  0  0  0
 95 98  1  0  0  0
 96 91  1  0  0  0
 96 99  1  0  0  0
 91 92  2  0  0  0
 91 93  1  0  0  0
 93 90  1  0  0  0
 93 94  1  0  0  0
 90103  1  0  0  0
 90 86  1  0  0  0
103104  1  0  0  0
104105  1  0  0  0
105106  2  0  0  0
105107  1  0  0  0
107108  1  0  0  0
107109  1  0  0  0
 86 87  2  0  0  0
 86 88  1  0  0  0
 88 85  1  0  0  0
 88 89  1  0  0  0
 85110  1  0  0  0
 85 81  1  0  0  0
110111  1  0  0  0
111112  1  0  0  0
112113  2  0  0  0
112114  1  0  0  0
114115  1  0  0  0
114116  1  0  0  0
 81 82  2  0  0  0
 81 83  1  0  0  0
 83 79  1  0  0  0
 83 84  1  0  0  0
 79 80  1  0  0  0
 79 75  1  0  0  0
 75 76  2  0  0  0
 75 77  1  0  0  0
 77 74  1  0  0  0
 77 78  1  0  0  0
 74117  1  0  0  0
 74 70  1  0  0  0
117118  1  0  0  0
118119  1  0  0  0
 70 71  2  0  0  0
 70 72  1  0  0  0
 72 69  1  0  0  0
 72 73  1  0  0  0
 69120  1  0  0  0
 69 65  1  0  0  0
120121  1  0  0  0
121125  1  0  0  0
121122  2  0  0  0
122123  1  0  0  0
123124  2  0  0  0
124125  1  0  0  0
125126  1  0  0  0
 65 66  2  0  0  0
 65 67  1  0  0  0
 67  1  1  0  0  0
 67 68  1  0  0  0
  1  2  1  0  0  0
  1 10  1  0  0  0
  2  8  2  0  0  0
  2  3  1  0  0  0
  3  4  2  0  0  0
  4  5  1  0  0  0
  5  6  1  0  0  0
  5  7  2  0  0  0
  6  9  1  0  0  0
  7  8  1  0  0  0
 10 11  2  0  0  0
 10 12  1  0  0  0
 12 14  1  0  0  0
 12 13  1  0  0  0
 14 58  1  0  0  0
 14 15  1  0  0  0
 58 59  1  0  0  0
 59 60  1  0  0  0
 60 61  1  0  0  0
 61 62  1  0  0  0
 62 63  1  0  0  0
 62 64  1  0  0  0
 15 16  2  0  0  0
 15 17  1  0  0  0
 17 19  1  0  0  0
 17 18  1  0  0  0
 19 51  1  0  0  0
 19 20  1  0  0  0
 51 52  1  0  0  0
 52 53  1  0  0  0
 53 54  2  0  0  0
 53 55  1  0  0  0
 55 56  1  0  0  0
 55 57  1  0  0  0
 20 21  2  0  0  0
 20 22  1  0  0  0
 22 24  1  0  0  0
 22 23  1  0  0  0
 24 44  1  0  0  0
 24 25  1  0  0  0
 44 45  1  0  0  0
 45 49  1  0  0  0
 45 46  2  0  0  0
 46 47  1  0  0  0
 47 48  2  0  0  0
 48 49  1  0  0  0
 49 50  1  0  0  0
 25 26  2  0  0  0
 25 27  1  0  0  0
 27 29  1  0  0  0
 27 28  1  0  0  0
 29 41  1  0  0  0
 29 30  1  0  0  0
 41 42  1  0  0  0
 42 43  1  0  0  0
 30 31  2  0  0  0
 30 32  1  0  0  0
 32 36  1  0  0  0
 32 33  1  0  0  0
 33 34  1  0  0  0
 34 35  1  0  0  0
 35 36  1  0  0  0
 36 37  1  0  0  0
 37 38  1  0  0  0
 37 39  2  0  0  0
 38 40  1  0  0  0
 99100  1  0  0  0
 99101  1  0  0  0
100102  1  0  0  0
M  END
> <minimizedAffinity>
-8.24436

$$$$



126129  0  0  0  0  0  0  0  0999 V2000
   37.8275  112.9752   27.0933 C   0  0  0  0  0  0  0  0  0  0  0  0
   37.8828  113.3956   26.1877 C   0  0  0  0  0  0  0  0  0  0  0  0
   37.6736  112.8560   25.3723 C   0  0  0  0  0  0  0  0  0  0  0  0
   37.7289  113.2765   24.4666 C   0  0  0  0  0  0  0  0  0  0  0  0
   37.9935  114.2366   24.3765 C   0  0  0  0  0  0  0  0  0  0  0  0
   38.0488  114.6571   23.4709 O   0  0  0  0  0  0  0  0  0  0  0  0
   38.2027  114.7763   25.1919 C   0  0  0  0  0  0  0  0  0  0  0  0
   38.1474  114.3558   26.0975 C   0  0  0  0  0  0  0  0  0  0  0  0
   37.8527  114.1514   22.7068 H   0  0  0  0  0  0  0  0  0  0  0  0
   36.9827  112.5272   27.3858 C   0  0  0  0  0  0  0  0  0  0  0  0
   36.5908  111.7904   26.8349 O   0  0  0  0  0  0  0  0  0  0  0  0
   36.5298  112.8161   28.2292 N   0  0  0  0  0  0  0  0  0  0  0  0
   36.9156  113.5415   28.7716 H   0  0  0  0  0  0  0  0  0  0  0  0
   35.6848  112.3681   28.5218 C   0  0  0  0  0  0  0  0  0  0  0  0
   35.7249  111.5617   29.1118 C   0  0  0  0  0  0  0  0  0  0  0  0
   36.3568  111.5398   29.8864 O   0  0  0  0  0  0  0  0  0  0  0  0
   35.1329  110.7772   28.9271 N   0  0  0  0  0  0  0  0  0  0  0  0
   34.5107  110.7988   28.1645 H   0  0  0  0  0  0  0  0  0  0  0  0
   35.1729  109.9708   29.5171 C   0  0  0  0  0  0  0  0  0  0  0  0
   34.4732  109.8283   30.2171 C   0  0  0  0  0  0  0  0  0  0  0  0
   34.7206  109.4192   31.0955 O   0  0  0  0  0  0  0  0  0  0  0  0
   33.5259  110.0948   30.0389 N   0  0  0  0  0  0  0  0  0  0  0  0
   33.2823  110.4975   29.1742 H   0  0  0  0  0  0  0  0  0  0  0  0
   32.8262  109.9523   30.7389 C   0  0  0  0  0  0  0  0  0  0  0  0
   32.2861  109.1106   30.7419 C   0  0  0  0  0  0  0  0  0  0  0  0
   31.9586  108.7299   31.6066 O   0  0  0  0  0  0  0  0  0  0  0  0
   32.0736  108.6498   29.8803 N   0  0  0  0  0  0  0  0  0  0  0  0
   32.3961  109.0247   29.0290 H   0  0  0  0  0  0  0  0  0  0  0  0
   31.5336  107.8082   29.8833 C   0  0  0  0  0  0  0  0  0  0  0  0
   31.9861  106.9233   29.7730 C   0  0  0  0  0  0  0  0  0  0  0  0
   31.9592  106.2522   30.5138 O   0  0  0  0  0  0  0  0  0  0  0  0
   32.4656  106.7096   28.9218 N   0  0  0  0  0  0  0  0  0  0  0  0
   32.5486  107.3108   28.1271 C   0  0  0  0  0  0  0  0  0  0  0  0
   33.0806  106.8298   27.4302 C   0  0  0  0  0  0  0  0  0  0  0  0
   33.3263  105.9315   27.7942 C   0  0  0  0  0  0  0  0  0  0  0  0
   32.9462  105.8571   28.7161 C   0  0  0  0  0  0  0  0  0  0  0  0
   33.0318  105.0688   29.3254 C   0  0  0  0  0  0  0  0  0  0  0  0
   32.3391  104.3477   29.3102 O   0  0  0  0  0  0  0  0  0  0  0  0
   33.8100  105.0016   29.9498 O   0  0  0  0  0  0  0  0  0  0  0  0
   31.6100  104.4107   28.7251 H   0  0  0  0  0  0  0  0  0  0  0  0
   30.5409  107.8515   29.9966 C   0  0  0  0  0  0  0  0  0  0  0  0
   29.9704  108.2290   29.2673 S   0  0  0  0  0  0  0  0  0  0  0  0
   30.5444  108.6836   28.1212 H   0  0  0  0  0  0  0  0  0  0  0  0
   32.6665  110.6513   31.4359 C   0  0  0  0  0  0  0  0  0  0  0  0
   32.2432  111.5215   31.1836 C   0  0  0  0  0  0  0  0  0  0  0  0
   32.6269  112.4306   31.3457 C   0  0  0  0  0  0  0  0  0  0  0  0
   31.9828  113.1063   30.9872 N   0  0  0  0  0  0  0  0  0  0  0  0
   31.2009  112.6147   30.6034 C   0  0  0  0  0  0  0  0  0  0  0  0
   31.3620  111.6352   30.7249 N   0  0  0  0  0  0  0  0  0  0  0  0
   30.7588  110.9103   30.4423 H   0  0  0  0  0  0  0  0  0  0  0  0
   35.9126  109.3070   29.4071 C   0  0  0  0  0  0  0  0  0  0  0  0
   35.9403  108.7187   28.5989 C   0  0  0  0  0  0  0  0  0  0  0  0
   36.7906  108.2576   28.3451 C   0  0  0  0  0  0  0  0  0  0  0  0
   37.4107  108.6804   27.6842 O   0  0  0  0  0  0  0  0  0  0  0  0
   37.0208  107.3737   28.7521 N   0  0  0  0  0  0  0  0  0  0  0  0
   36.4104  106.9574   29.4028 H   0  0  0  0  0  0  0  0  0  0  0  0
   37.8579  106.9197   28.5022 H   0  0  0  0  0  0  0  0  0  0  0  0
   34.8000  112.7266   28.2243 C   0  0  0  0  0  0  0  0  0  0  0  0
   34.5206  113.6501   28.4875 C   0  0  0  0  0  0  0  0  0  0  0  0
   33.6873  114.0486   28.1043 C   0  0  0  0  0  0  0  0  0  0  0  0
   33.4806  115.0154   28.2545 C   0  0  0  0  0  0  0  0  0  0  0  0
   32.5500  115.2973   28.4880 N   0  0  0  0  0  0  0  0  0  0  0  0
   31.8116  114.5987   28.5730 H   0  0  0  0  0  0  0  0  0  0  0  0
   32.3391  116.2834   28.6411 H   0  0  0  0  0  0  0  0  0  0  0  0
   39.3031  112.2761   27.6710 C   0  0  0  0  0  0  0  0  0  0  0  0
   39.1997  111.5218   27.0225 O   0  0  0  0  0  0  0  0  0  0  0  0
   38.6171  113.0027   27.7064 N   0  0  0  0  0  0  0  0  0  0  0  0
   38.7188  113.7451   28.3449 H   0  0  0  0  0  0  0  0  0  0  0  0
   40.0927  112.3036   28.2841 C   0  0  0  0  0  0  0  0  0  0  0  0
   40.1260  111.2119   29.6285 C   0  0  0  0  0  0  0  0  0  0  0  0
   39.4921  111.8045   30.1254 O   0  0  0  0  0  0  0  0  0  0  0  0
   40.4263  111.4614   28.7078 N   0  0  0  0  0  0  0  0  0  0  0  0
   41.0504  110.8780   28.2185 H   0  0  0  0  0  0  0  0  0  0  0  0
   40.4596  110.3698   30.0521 C   0  0  0  0  0  0  0  0  0  0  0  0
   41.9926  110.2267   30.8455 C   0  0  0  0  0  0  0  0  0  0  0  0
   41.5774  110.5314   31.7027 O   0  0  0  0  0  0  0  0  0  0  0  0
   41.4337  110.1459   30.0202 N   0  0  0  0  0  0  0  0  0  0  0  0
   41.8424  109.8460   29.1763 H   0  0  0  0  0  0  0  0  0  0  0  0
   42.9667  110.0028   30.8136 C   0  0  0  0  0  0  0  0  0  0  0  0
   43.6418  110.6590   31.1506 C   0  0  0  0  0  0  0  0  0  0  0  0
   43.5548  108.3931   31.0645 C   0  0  0  0  0  0  0  0  0  0  0  0
   43.5449  108.5436   32.0530 O   0  0  0  0  0  0  0  0  0  0  0  0
   43.2656  109.1227   30.4448 N   0  0  0  0  0  0  0  0  0  0  0  0
   43.2753  108.9746   29.4715 H   0  0  0  0  0  0  0  0  0  0  0  0
   43.8537  107.5129   30.6956 C   0  0  0  0  0  0  0  0  0  0  0  0
   42.8329  106.4138   29.8297 C   0  0  0  0  0  0  0  0  0  0  0  0
   42.5658  105.9829   30.6917 O   0  0  0  0  0  0  0  0  0  0  0  0
   43.4768  107.1789   29.8317 N   0  0  0  0  0  0  0  0  0  0  0  0
   43.7397  107.6032   28.9832 H   0  0  0  0  0  0  0  0  0  0  0  0
   42.4559  106.0798   28.9658 C   0  0  0  0  0  0  0  0  0  0  0  0
   43.2164  104.7731   28.1207 C   0  0  0  0  0  0  0  0  0  0  0  0
   43.8753  105.4126   27.7248 O   0  0  0  0  0  0  0  0  0  0  0  0
   42.5067  105.1067   28.7412 N   0  0  0  0  0  0  0  0  0  0  0  0
   41.8579  104.4771   29.1310 H   0  0  0  0  0  0  0  0  0  0  0  0
   43.8295  103.1872   28.4514 N   0  0  0  0  0  0  0  0  0  0  0  0
   43.2671  103.7999   27.8961 C   0  0  0  0  0  0  0  0  0  0  0  0
   43.8813  102.1947   28.2224 H   0  0  0  0  0  0  0  0  0  0  0  0
   44.3516  103.5550   29.2468 H   0  0  0  0  0  0  0  0  0  0  0  0
   42.7553  103.4393   27.1163 C   0  0  0  0  0  0  0  0  0  0  0  0
   42.5607  104.0271   26.3311 O   0  0  0  0  0  0  0  0  0  0  0  0
   42.4380  102.4910   27.1218 C   0  0  0  0  0  0  0  0  0  0  0  0
   42.8685  104.9471   26.3258 H   0  0  0  0  0  0  0  0  0  0  0  0
   42.0283  106.7188   28.3265 C   0  0  0  0  0  0  0  0  0  0  0  0
   41.0378  106.7020   28.1903 C   0  0  0  0  0  0  0  0  0  0  0  0
   40.6420  107.0765   27.3517 C   0  0  0  0  0  0  0  0  0  0  0  0
   40.5451  106.4971   26.5424 O   0  0  0  0  0  0  0  0  0  0  0  0
   40.3431  108.0303   27.3224 N   0  0  0  0  0  0  0  0  0  0  0  0
   40.4385  108.6007   28.1191 H   0  0  0  0  0  0  0  0  0  0  0  0
   39.9534  108.3989   26.4969 H   0  0  0  0  0  0  0  0  0  0  0  0
   44.5295  106.9669   31.1907 C   0  0  0  0  0  0  0  0  0  0  0  0
   45.4882  106.9801   30.9064 C   0  0  0  0  0  0  0  0  0  0  0  0
   46.1455  106.3609   31.3358 C   0  0  0  0  0  0  0  0  0  0  0  0
   46.6719  106.6632   32.1305 O   0  0  0  0  0  0  0  0  0  0  0  0
   46.2766  105.4392   30.9706 N   0  0  0  0  0  0  0  0  0  0  0  0
   45.7583  105.1415   30.1882 H   0  0  0  0  0  0  0  0  0  0  0  0
   46.9238  104.8295   31.3933 H   0  0  0  0  0  0  0  0  0  0  0  0
   39.8191  109.7516   30.5077 C   0  0  0  0  0  0  0  0  0  0  0  0
   39.3842  109.0134   29.9921 O   0  0  0  0  0  0  0  0  0  0  0  0
   38.7629  108.4137   30.4340 H   0  0  0  0  0  0  0  0  0  0  0  0
   40.5486  113.1733   28.4736 C   0  0  0  0  0  0  0  0  0  0  0  0
   41.4025  113.4023   28.0064 C   0  0  0  0  0  0  0  0  0  0  0  0
   41.4990  114.0253   27.2301 C   0  0  0  0  0  0  0  0  0  0  0  0
   42.4661  114.0567   26.9773 N   0  0  0  0  0  0  0  0  0  0  0  0
   42.9672  113.4530   27.5974 C   0  0  0  0  0  0  0  0  0  0  0  0
   42.3099  113.0486   28.2334 N   0  0  0  0  0  0  0  0  0  0  0  0
   42.5193  112.4137   28.9561 H   0  0  0  0  0  0  0  0  0  0  0  0
 95 96  1  0  0  0
 95 97  1  0  0  0
 95 98  1  0  0  0
 96 91  1  0  0  0
 96 99  1  0  0  0
 91 92  2  0  0  0
 91 93  1  0  0  0
 93 90  1  0  0  0
 93 94  1  0  0  0
 90103  1  0  0  0
 90 86  1  0  0  0
103104  1  0  0  0
104105  1  0  0  0
105106  2  0  0  0
105107  1  0  0  0
107108  1  0  0  0
107109  1  0  0  0
 86 87  2  0  0  0
 86 88  1  0  0  0
 88 85  1  0  0  0
 88 89  1  0  0  0
 85110  1  0  0  0
 85 81  1  0  0  0
110111  1  0  0  0
111112  1  0  0  0
112113  2  0  0  0
112114  1  0  0  0
114115  1  0  0  0
114116  1  0  0  0
 81 82  2  0  0  0
 81 83  1  0  0  0
 83 79  1  0  0  0
 83 84  1  0  0  0
 79 80  1  0  0  0
 79 75  1  0  0  0
 75 76  2  0  0  0
 75 77  1  0  0  0
 77 74  1  0  0  0
 77 78  1  0  0  0
 74117  1  0  0  0
 74 70  1  0  0  0
117118  1  0  0  0
118119  1  0  0  0
 70 71  2  0  0  0
 70 72  1  0  0  0
 72 69  1  0  0  0
 72 73  1  0  0  0
 69120  1  0  0  0
 69 65  1  0  0  0
120121  1  0  0  0
121125  1  0  0  0
121122  2  0  0  0
122123  1  0  0  0
123124  2  0  0  0
124125  1  0  0  0
125126  1  0  0  0
 65 66  2  0  0  0
 65 67  1  0  0  0
 67  1  1  0  0  0
 67 68  1  0  0  0
  1  2  1  0  0  0
  1 10  1  0  0  0
  2  8  2  0  0  0
  2  3  1  0  0  0
  3  4  2  0  0  0
  4  5  1  0  0  0
  5  6  1  0  0  0
  5  7  2  0  0  0
  6  9  1  0  0  0
  7  8  1  0  0  0
 10 11  2  0  0  0
 10 12  1  0  0  0
 12 14  1  0  0  0
 12 13  1  0  0  0
 14 58  1  0  0  0
 14 15  1  0  0  0
 58 59  1  0  0  0
 59 60  1  0  0  0
 60 61  1  0  0  0
 61 62  1  0  0  0
 62 63  1  0  0  0
 62 64  1  0  0  0
 15 16  2  0  0  0
 15 17  1  0  0  0
 17 19  1  0  0  0
 17 18  1  0  0  0
 19 51  1  0  0  0
 19 20  1  0  0  0
 51 52  1  0  0  0
 52 53  1  0  0  0
 53 54  2  0  0  0
 53 55  1  0  0  0
 55 56  1  0  0  0
 55 57  1  0  0  0
 20 21  2  0  0  0
 20 22  1  0  0  0
 22 24  1  0  0  0
 22 23  1  0  0  0
 24 44  1  0  0  0
 24 25  1  0  0  0
 44 45  1  0  0  0
 45 49  1  0  0  0
 45 46  2  0  0  0
 46 47  1  0  0  0
 47 48  2  0  0  0
 48 49  1  0  0  0
 49 50  1  0  0  0
 25 26  2  0  0  0
 25 27  1  0  0  0
 27 29  1  0  0  0
 27 28  1  0  0  0
 29 41  1  0  0  0
 29 30  1  0  0  0
 41 42  1  0  0  0
 42 43  1  0  0  0
 30 31  2  0  0  0
 30 32  1  0  0  0
 32 36  1  0  0  0
 32 33  1  0  0  0
 33 34  1  0  0  0
 34 35  1  0  0  0
 35 36  1  0  0  0
 36 37  1  0  0  0
 37 38  1  0  0  0
 37 39  2  0  0  0
 38 40  1  0  0  0
 99100  1  0  0  0
 99101  1  0  0  0
100102  1  0  0  0
M  END
> <minimizedAffinity>
-8.20456

$$$$



126129  0  0  0  0  0  0  0  0999 V2000
   39.3189  109.8502   28.8981 C   0  0  0  0  0  0  0  0  0  0  0  0
   38.5378  109.2743   28.6567 C   0  0  0  0  0  0  0  0  0  0  0  0
   38.5498  108.7452   27.8083 C   0  0  0  0  0  0  0  0  0  0  0  0
   37.7687  108.1693   27.5670 C   0  0  0  0  0  0  0  0  0  0  0  0
   36.9755  108.1226   28.1742 C   0  0  0  0  0  0  0  0  0  0  0  0
   36.1944  107.5467   27.9329 O   0  0  0  0  0  0  0  0  0  0  0  0
   36.9634  108.6517   29.0226 C   0  0  0  0  0  0  0  0  0  0  0  0
   37.7445  109.2276   29.2639 C   0  0  0  0  0  0  0  0  0  0  0  0
   36.2057  107.0510   27.1379 H   0  0  0  0  0  0  0  0  0  0  0  0
   39.8455  109.6572   29.7259 C   0  0  0  0  0  0  0  0  0  0  0  0
   39.5305  110.0013   30.6105 O   0  0  0  0  0  0  0  0  0  0  0  0
   40.6871  109.1201   29.6693 N   0  0  0  0  0  0  0  0  0  0  0  0
   40.9972  108.7813   28.7985 H   0  0  0  0  0  0  0  0  0  0  0  0
   41.2137  108.9271   30.4973 C   0  0  0  0  0  0  0  0  0  0  0  0
   42.0872  109.3883   30.6531 C   0  0  0  0  0  0  0  0  0  0  0  0
   42.8430  109.2578   30.0115 O   0  0  0  0  0  0  0  0  0  0  0  0
   42.2048  109.9800   31.4506 N   0  0  0  0  0  0  0  0  0  0  0  0
   41.4607  110.1084   32.0823 H   0  0  0  0  0  0  0  0  0  0  0  0
   43.0783  110.4412   31.6065 C   0  0  0  0  0  0  0  0  0  0  0  0
   43.2423  111.3468   31.2154 C   0  0  0  0  0  0  0  0  0  0  0  0
   42.4857  111.9932   31.1163 O   0  0  0  0  0  0  0  0  0  0  0  0
   44.1629  111.6061   30.9233 N   0  0  0  0  0  0  0  0  0  0  0  0
   44.9078  110.9698   31.0209 H   0  0  0  0  0  0  0  0  0  0  0  0
   44.3269  112.5117   30.5322 C   0  0  0  0  0  0  0  0  0  0  0  0
   44.6888  113.2462   31.1063 C   0  0  0  0  0  0  0  0  0  0  0  0
   44.1455  114.0705   31.2650 O   0  0  0  0  0  0  0  0  0  0  0  0
   45.5941  113.1563   31.5215 N   0  0  0  0  0  0  0  0  0  0  0  0
   46.1289  112.3447   31.3652 H   0  0  0  0  0  0  0  0  0  0  0  0
   45.9560  113.8908   32.0956 C   0  0  0  0  0  0  0  0  0  0  0  0
   46.4791  114.6364   31.6828 C   0  0  0  0  0  0  0  0  0  0  0  0
   46.1480  115.5774   31.7517 O   0  0  0  0  0  0  0  0  0  0  0  0
   47.3335  114.4409   31.2011 N   0  0  0  0  0  0  0  0  0  0  0  0
   47.7458  113.5381   31.0787 C   0  0  0  0  0  0  0  0  0  0  0  0
   48.5926  113.6532   30.5592 C   0  0  0  0  0  0  0  0  0  0  0  0
   48.7034  114.6270   30.3607 C   0  0  0  0  0  0  0  0  0  0  0  0
   47.9253  115.1138   30.7574 C   0  0  0  0  0  0  0  0  0  0  0  0
   47.7667  116.1003   30.7174 C   0  0  0  0  0  0  0  0  0  0  0  0
   47.2327  116.4909   29.9676 O   0  0  0  0  0  0  0  0  0  0  0  0
   48.1422  116.6963   31.4273 O   0  0  0  0  0  0  0  0  0  0  0  0
   46.8809  115.9325   29.3025 H   0  0  0  0  0  0  0  0  0  0  0  0
   45.7947  113.8797   33.0825 C   0  0  0  0  0  0  0  0  0  0  0  0
   46.1512  113.1292   33.6390 S   0  0  0  0  0  0  0  0  0  0  0  0
   46.8552  112.1235   33.0537 H   0  0  0  0  0  0  0  0  0  0  0  0
   44.1290  112.6829   29.5670 C   0  0  0  0  0  0  0  0  0  0  0  0
   44.8761  112.7288   28.9039 C   0  0  0  0  0  0  0  0  0  0  0  0
   45.5389  112.0044   28.7141 C   0  0  0  0  0  0  0  0  0  0  0  0
   46.1640  112.3351   28.0071 N   0  0  0  0  0  0  0  0  0  0  0  0
   45.8875  113.2638   27.7598 C   0  0  0  0  0  0  0  0  0  0  0  0
   45.0915  113.5071   28.3142 N   0  0  0  0  0  0  0  0  0  0  0  0
   44.6053  114.3627   28.2844 H   0  0  0  0  0  0  0  0  0  0  0  0
   43.7878  109.9969   32.1535 C   0  0  0  0  0  0  0  0  0  0  0  0
   43.6582  109.8763   33.1377 C   0  0  0  0  0  0  0  0  0  0  0  0
   44.1904  109.1886   33.6315 C   0  0  0  0  0  0  0  0  0  0  0  0
   43.9515  108.2206   33.5535 O   0  0  0  0  0  0  0  0  0  0  0  0
   44.9614  109.4688   34.2033 N   0  0  0  0  0  0  0  0  0  0  0  0
   45.1966  110.4218   34.2800 H   0  0  0  0  0  0  0  0  0  0  0  0
   45.4854  108.7918   34.6895 H   0  0  0  0  0  0  0  0  0  0  0  0
   40.8669  108.2728   31.1693 C   0  0  0  0  0  0  0  0  0  0  0  0
   41.0434  107.2953   31.0528 C   0  0  0  0  0  0  0  0  0  0  0  0
   40.7086  106.6423   31.7321 C   0  0  0  0  0  0  0  0  0  0  0  0
   41.2746  105.8615   31.9965 C   0  0  0  0  0  0  0  0  0  0  0  0
   40.8610  104.9572   32.1023 N   0  0  0  0  0  0  0  0  0  0  0  0
   39.8618  104.8313   31.9405 H   0  0  0  0  0  0  0  0  0  0  0  0
   41.4383  104.1607   32.3719 H   0  0  0  0  0  0  0  0  0  0  0  0
   39.2390  111.5384   28.5189 C   0  0  0  0  0  0  0  0  0  0  0  0
   38.6501  111.6888   29.3131 O   0  0  0  0  0  0  0  0  0  0  0  0
   39.5734  110.6191   28.3115 N   0  0  0  0  0  0  0  0  0  0  0  0
   40.1531  110.4709   27.5297 H   0  0  0  0  0  0  0  0  0  0  0  0
   39.4935  112.3072   27.9323 C   0  0  0  0  0  0  0  0  0  0  0  0
   38.2896  112.8068   26.7917 C   0  0  0  0  0  0  0  0  0  0  0  0
   38.4759  111.9943   26.2392 O   0  0  0  0  0  0  0  0  0  0  0  0
   38.7984  112.9632   27.6382 N   0  0  0  0  0  0  0  0  0  0  0  0
   38.6151  113.7631   28.1821 H   0  0  0  0  0  0  0  0  0  0  0  0
   37.5946  113.4628   26.4976 C   0  0  0  0  0  0  0  0  0  0  0  0
   36.0104  113.9865   26.9623 C   0  0  0  0  0  0  0  0  0  0  0  0
   36.3641  114.9064   27.1312 O   0  0  0  0  0  0  0  0  0  0  0  0
   36.6256  113.2646   26.6455 N   0  0  0  0  0  0  0  0  0  0  0  0
   36.2775  112.3589   26.4792 H   0  0  0  0  0  0  0  0  0  0  0  0
   35.0414  113.7883   27.1103 C   0  0  0  0  0  0  0  0  0  0  0  0
   34.3958  113.8544   26.3496 C   0  0  0  0  0  0  0  0  0  0  0  0
   33.7415  113.3827   28.1806 C   0  0  0  0  0  0  0  0  0  0  0  0
   33.0882  113.5055   27.4336 O   0  0  0  0  0  0  0  0  0  0  0  0
   34.7182  113.5242   28.0189 N   0  0  0  0  0  0  0  0  0  0  0  0
   35.3614  113.4033   28.7544 H   0  0  0  0  0  0  0  0  0  0  0  0
   33.4182  113.1185   29.0893 C   0  0  0  0  0  0  0  0  0  0  0  0
   33.3581  111.4570   29.5748 C   0  0  0  0  0  0  0  0  0  0  0  0
   34.3269  111.4936   29.8197 O   0  0  0  0  0  0  0  0  0  0  0  0
   32.9037  112.2695   29.2096 N   0  0  0  0  0  0  0  0  0  0  0  0
   31.9499  112.2336   28.9685 H   0  0  0  0  0  0  0  0  0  0  0  0
   32.8436  110.6080   29.6952 C   0  0  0  0  0  0  0  0  0  0  0  0
   31.6379  110.5974   30.9386 C   0  0  0  0  0  0  0  0  0  0  0  0
   32.3541  110.5223   31.6324 O   0  0  0  0  0  0  0  0  0  0  0  0
   31.8827  110.6403   29.9699 N   0  0  0  0  0  0  0  0  0  0  0  0
   31.1776  110.7143   29.2868 H   0  0  0  0  0  0  0  0  0  0  0  0
   30.1663  109.7804   31.3473 N   0  0  0  0  0  0  0  0  0  0  0  0
   30.6769  110.6298   31.2134 C   0  0  0  0  0  0  0  0  0  0  0  0
   29.1862  109.8133   31.6276 H   0  0  0  0  0  0  0  0  0  0  0  0
   30.6258  108.8811   31.2038 H   0  0  0  0  0  0  0  0  0  0  0  0
   30.2264  111.5114   31.3541 C   0  0  0  0  0  0  0  0  0  0  0  0
   30.6254  112.1826   31.9789 O   0  0  0  0  0  0  0  0  0  0  0  0
   29.3771  111.7218   30.8701 C   0  0  0  0  0  0  0  0  0  0  0  0
   31.4493  111.9784   32.4484 H   0  0  0  0  0  0  0  0  0  0  0  0
   33.2901  109.7267   29.5407 C   0  0  0  0  0  0  0  0  0  0  0  0
   32.9439  109.1076   28.8358 C   0  0  0  0  0  0  0  0  0  0  0  0
   33.1898  108.1384   28.8569 C   0  0  0  0  0  0  0  0  0  0  0  0
   33.5838  107.7404   29.6853 O   0  0  0  0  0  0  0  0  0  0  0  0
   33.0416  107.5674   28.0494 N   0  0  0  0  0  0  0  0  0  0  0  0
   32.6537  107.9593   27.2339 H   0  0  0  0  0  0  0  0  0  0  0  0
   33.2836  106.6134   28.0701 H   0  0  0  0  0  0  0  0  0  0  0  0
   33.6093  113.7033   29.8776 C   0  0  0  0  0  0  0  0  0  0  0  0
   32.8992  114.3110   30.2332 C   0  0  0  0  0  0  0  0  0  0  0  0
   32.9447  114.6338   31.1785 C   0  0  0  0  0  0  0  0  0  0  0  0
   33.0512  113.9783   31.9261 O   0  0  0  0  0  0  0  0  0  0  0  0
   32.8838  115.6122   31.3763 N   0  0  0  0  0  0  0  0  0  0  0  0
   32.7790  116.2576   30.6403 H   0  0  0  0  0  0  0  0  0  0  0  0
   32.9286  115.9300   32.3071 H   0  0  0  0  0  0  0  0  0  0  0  0
   37.8685  114.3169   26.0555 C   0  0  0  0  0  0  0  0  0  0  0  0
   38.4326  114.2942   25.2301 O   0  0  0  0  0  0  0  0  0  0  0  0
   38.6982  115.1228   24.8013 H   0  0  0  0  0  0  0  0  0  0  0  0
   40.4432  112.4200   27.6399 C   0  0  0  0  0  0  0  0  0  0  0  0
   40.9348  113.2645   27.8522 C   0  0  0  0  0  0  0  0  0  0  0  0
   41.4540  113.8213   27.2039 C   0  0  0  0  0  0  0  0  0  0  0  0
   41.8337  114.6015   27.7012 N   0  0  0  0  0  0  0  0  0  0  0  0
   41.5490  114.5268   28.6570 C   0  0  0  0  0  0  0  0  0  0  0  0
   40.9935  113.7005   28.7502 N   0  0  0  0  0  0  0  0  0  0  0  0
   40.5774  113.3737   29.5805 H   0  0  0  0  0  0  0  0  0  0  0  0
 95 96  1  0  0  0
 95 97  1  0  0  0
 95 98  1  0  0  0
 96 91  1  0  0  0
 96 99  1  0  0  0
 91 92  2  0  0  0
 91 93  1  0  0  0
 93 90  1  0  0  0
 93 94  1  0  0  0
 90103  1  0  0  0
 90 86  1  0  0  0
103104  1  0  0  0
104105  1  0  0  0
105106  2  0  0  0
105107  1  0  0  0
107108  1  0  0  0
107109  1  0  0  0
 86 87  2  0  0  0
 86 88  1  0  0  0
 88 85  1  0  0  0
 88 89  1  0  0  0
 85110  1  0  0  0
 85 81  1  0  0  0
110111  1  0  0  0
111112  1  0  0  0
112113  2  0  0  0
112114  1  0  0  0
114115  1  0  0  0
114116  1  0  0  0
 81 82  2  0  0  0
 81 83  1  0  0  0
 83 79  1  0  0  0
 83 84  1  0  0  0
 79 80  1  0  0  0
 79 75  1  0  0  0
 75 76  2  0  0  0
 75 77  1  0  0  0
 77 74  1  0  0  0
 77 78  1  0  0  0
 74117  1  0  0  0
 74 70  1  0  0  0
117118  1  0  0  0
118119  1  0  0  0
 70 71  2  0  0  0
 70 72  1  0  0  0
 72 69  1  0  0  0
 72 73  1  0  0  0
 69120  1  0  0  0
 69 65  1  0  0  0
120121  1  0  0  0
121125  1  0  0  0
121122  2  0  0  0
122123  1  0  0  0
123124  2  0  0  0
124125  1  0  0  0
125126  1  0  0  0
 65 66  2  0  0  0
 65 67  1  0  0  0
 67  1  1  0  0  0
 67 68  1  0  0  0
  1  2  1  0  0  0
  1 10  1  0  0  0
  2  8  2  0  0  0
  2  3  1  0  0  0
  3  4  2  0  0  0
  4  5  1  0  0  0
  5  6  1  0  0  0
  5  7  2  0  0  0
  6  9  1  0  0  0
  7  8  1  0  0  0
 10 11  2  0  0  0
 10 12  1  0  0  0
 12 14  1  0  0  0
 12 13  1  0  0  0
 14 58  1  0  0  0
 14 15  1  0  0  0
 58 59  1  0  0  0
 59 60  1  0  0  0
 60 61  1  0  0  0
 61 62  1  0  0  0
 62 63  1  0  0  0
 62 64  1  0  0  0
 15 16  2  0  0  0
 15 17  1  0  0  0
 17 19  1  0  0  0
 17 18  1  0  0  0
 19 51  1  0  0  0
 19 20  1  0  0  0
 51 52  1  0  0  0
 52 53  1  0  0  0
 53 54  2  0  0  0
 53 55  1  0  0  0
 55 56  1  0  0  0
 55 57  1  0  0  0
 20 21  2  0  0  0
 20 22  1  0  0  0
 22 24  1  0  0  0
 22 23  1  0  0  0
 24 44  1  0  0  0
 24 25  1  0  0  0
 44 45  1  0  0  0
 45 49  1  0  0  0
 45 46  2  0  0  0
 46 47  1  0  0  0
 47 48  2  0  0  0
 48 49  1  0  0  0
 49 50  1  0  0  0
 25 26  2  0  0  0
 25 27  1  0  0  0
 27 29  1  0  0  0
 27 28  1  0  0  0
 29 41  1  0  0  0
 29 30  1  0  0  0
 41 42  1  0  0  0
 42 43  1  0  0  0
 30 31  2  0  0  0
 30 32  1  0  0  0
 32 36  1  0  0  0
 32 33  1  0  0  0
 33 34  1  0  0  0
 34 35  1  0  0  0
 35 36  1  0  0  0
 36 37  1  0  0  0
 37 38  1  0  0  0
 37 39  2  0  0  0
 38 40  1  0  0  0
 99100  1  0  0  0
 99101  1  0  0  0
100102  1  0  0  0
M  END
> <minimizedAffinity>
-8.12266

$$$$



126129  0  0  0  0  0  0  0  0999 V2000
   43.6395  110.1252   31.3789 C   0  0  0  0  0  0  0  0  0  0  0  0
   43.3430  109.2814   31.8262 C   0  0  0  0  0  0  0  0  0  0  0  0
   43.1572  108.4646   31.2800 C   0  0  0  0  0  0  0  0  0  0  0  0
   42.8607  107.6207   31.7274 C   0  0  0  0  0  0  0  0  0  0  0  0
   42.7501  107.5937   32.7208 C   0  0  0  0  0  0  0  0  0  0  0  0
   42.4537  106.7499   33.1681 O   0  0  0  0  0  0  0  0  0  0  0  0
   42.9360  108.4105   33.2670 C   0  0  0  0  0  0  0  0  0  0  0  0
   43.2324  109.2543   32.8197 C   0  0  0  0  0  0  0  0  0  0  0  0
   42.2795  105.9846   32.6564 H   0  0  0  0  0  0  0  0  0  0  0  0
   42.9959  110.8814   31.2612 C   0  0  0  0  0  0  0  0  0  0  0  0
   42.7873  111.4849   32.0308 O   0  0  0  0  0  0  0  0  0  0  0  0
   42.5608  111.0341   30.3738 N   0  0  0  0  0  0  0  0  0  0  0  0
   42.7661  110.4400   29.6162 H   0  0  0  0  0  0  0  0  0  0  0  0
   41.9171  111.7904   30.2561 C   0  0  0  0  0  0  0  0  0  0  0  0
   40.9614  111.6807   30.5292 C   0  0  0  0  0  0  0  0  0  0  0  0
   40.5036  112.4030   31.0476 O   0  0  0  0  0  0  0  0  0  0  0  0
   40.4636  110.8488   30.2841 N   0  0  0  0  0  0  0  0  0  0  0  0
   40.9144  110.1378   29.7738 H   0  0  0  0  0  0  0  0  0  0  0  0
   39.5079  110.7391   30.5573 C   0  0  0  0  0  0  0  0  0  0  0  0
   38.7758  110.9372   29.9056 C   0  0  0  0  0  0  0  0  0  0  0  0
   38.1566  111.7056   30.0675 O   0  0  0  0  0  0  0  0  0  0  0  0
   38.6628  110.3669   29.0919 N   0  0  0  0  0  0  0  0  0  0  0  0
   39.2724  109.6105   28.9324 H   0  0  0  0  0  0  0  0  0  0  0  0
   37.9307  110.5650   28.4402 C   0  0  0  0  0  0  0  0  0  0  0  0
   38.1362  111.0475   27.5887 C   0  0  0  0  0  0  0  0  0  0  0  0
   38.9312  110.7823   27.0432 O   0  0  0  0  0  0  0  0  0  0  0  0
   37.5467  111.7950   27.2828 N   0  0  0  0  0  0  0  0  0  0  0  0
   36.7640  112.0560   27.8199 H   0  0  0  0  0  0  0  0  0  0  0  0
   37.7522  112.2775   26.4313 C   0  0  0  0  0  0  0  0  0  0  0  0
   38.0059  113.2445   26.4533 C   0  0  0  0  0  0  0  0  0  0  0  0
   38.8888  113.5382   26.0869 O   0  0  0  0  0  0  0  0  0  0  0  0
   37.3767  113.9179   26.8416 N   0  0  0  0  0  0  0  0  0  0  0  0
   36.4760  113.7247   27.2307 C   0  0  0  0  0  0  0  0  0  0  0  0
   36.0805  114.5900   27.5385 C   0  0  0  0  0  0  0  0  0  0  0  0
   36.7367  115.3179   27.3397 C   0  0  0  0  0  0  0  0  0  0  0  0
   37.5378  114.9025   26.9089 C   0  0  0  0  0  0  0  0  0  0  0  0
   38.3563  115.3866   26.5998 C   0  0  0  0  0  0  0  0  0  0  0  0
   39.1086  115.5544   27.2370 O   0  0  0  0  0  0  0  0  0  0  0  0
   38.4226  115.7031   25.6535 O   0  0  0  0  0  0  0  0  0  0  0  0
   39.0465  115.2579   28.1237 H   0  0  0  0  0  0  0  0  0  0  0  0
   37.7040  111.7929   25.5579 C   0  0  0  0  0  0  0  0  0  0  0  0
   36.9297  111.9452   24.9436 S   0  0  0  0  0  0  0  0  0  0  0  0
   35.9422  112.8113   25.2961 H   0  0  0  0  0  0  0  0  0  0  0  0
   36.9930  110.2807   28.6400 C   0  0  0  0  0  0  0  0  0  0  0  0
   36.7430  109.3136   28.5927 C   0  0  0  0  0  0  0  0  0  0  0  0
   36.4394  108.7468   29.3586 C   0  0  0  0  0  0  0  0  0  0  0  0
   36.2614  107.8265   29.0105 N   0  0  0  0  0  0  0  0  0  0  0  0
   36.4549  107.8243   28.0293 C   0  0  0  0  0  0  0  0  0  0  0  0
   36.7526  108.7435   27.7712 N   0  0  0  0  0  0  0  0  0  0  0  0
   37.0099  109.0357   26.8669 H   0  0  0  0  0  0  0  0  0  0  0  0
   39.2844  110.4314   31.4821 C   0  0  0  0  0  0  0  0  0  0  0  0
   39.3863  109.4671   31.7265 C   0  0  0  0  0  0  0  0  0  0  0  0
   39.4431  109.1983   32.6880 C   0  0  0  0  0  0  0  0  0  0  0  0
   39.4148  108.2307   32.9392 O   0  0  0  0  0  0  0  0  0  0  0  0
   39.5282  109.8970   33.3983 N   0  0  0  0  0  0  0  0  0  0  0  0
   39.5561  110.8495   33.1510 H   0  0  0  0  0  0  0  0  0  0  0  0
   39.5841  109.6323   34.3449 H   0  0  0  0  0  0  0  0  0  0  0  0
   42.2292  112.6563   29.8651 C   0  0  0  0  0  0  0  0  0  0  0  0
   42.3978  112.7291   28.8821 C   0  0  0  0  0  0  0  0  0  0  0  0
   42.7757  113.5728   28.5008 C   0  0  0  0  0  0  0  0  0  0  0  0
   42.7892  113.7119   27.5106 C   0  0  0  0  0  0  0  0  0  0  0  0
   43.6521  113.9084   27.0450 N   0  0  0  0  0  0  0  0  0  0  0  0
   44.5186  113.9669   27.5801 H   0  0  0  0  0  0  0  0  0  0  0  0
   43.6659  114.0502   26.0351 H   0  0  0  0  0  0  0  0  0  0  0  0
   45.2434  110.7506   31.5689 C   0  0  0  0  0  0  0  0  0  0  0  0
   44.9673  111.2009   32.4181 O   0  0  0  0  0  0  0  0  0  0  0  0
   44.5795  110.2128   31.0493 N   0  0  0  0  0  0  0  0  0  0  0  0
   44.8513  109.7695   30.2133 H   0  0  0  0  0  0  0  0  0  0  0  0
   46.1835  110.8382   31.2393 C   0  0  0  0  0  0  0  0  0  0  0  0
   46.5315  112.1688   30.1865 C   0  0  0  0  0  0  0  0  0  0  0  0
   46.0888  111.6865   29.4306 O   0  0  0  0  0  0  0  0  0  0  0  0
   46.5789  111.7446   31.0908 N   0  0  0  0  0  0  0  0  0  0  0  0
   47.0148  112.2194   31.8350 H   0  0  0  0  0  0  0  0  0  0  0  0
   46.9269  113.0752   30.0380 C   0  0  0  0  0  0  0  0  0  0  0  0
   48.5204  113.4542   29.4749 C   0  0  0  0  0  0  0  0  0  0  0  0
   48.1751  113.5146   28.5384 O   0  0  0  0  0  0  0  0  0  0  0  0
   47.8963  113.2345   30.2247 N   0  0  0  0  0  0  0  0  0  0  0  0
   48.2362  113.1751   31.1467 H   0  0  0  0  0  0  0  0  0  0  0  0
   49.4898  113.6136   29.6616 C   0  0  0  0  0  0  0  0  0  0  0  0
   50.1858  113.2243   29.0582 C   0  0  0  0  0  0  0  0  0  0  0  0
   49.9968  115.1273   30.3335 C   0  0  0  0  0  0  0  0  0  0  0  0
   49.9570  115.5438   29.4253 O   0  0  0  0  0  0  0  0  0  0  0  0
   49.7632  114.1622   30.4517 N   0  0  0  0  0  0  0  0  0  0  0  0
   49.8025  113.7521   31.3459 H   0  0  0  0  0  0  0  0  0  0  0  0
   50.2703  115.6759   31.1236 C   0  0  0  0  0  0  0  0  0  0  0  0
   49.0989  116.2304   32.2728 C   0  0  0  0  0  0  0  0  0  0  0  0
   48.8789  117.0021   31.6761 O   0  0  0  0  0  0  0  0  0  0  0  0
   49.7946  115.5673   31.9965 N   0  0  0  0  0  0  0  0  0  0  0  0
   50.0112  114.8075   32.5839 H   0  0  0  0  0  0  0  0  0  0  0  0
   48.6233  116.1218   33.1457 C   0  0  0  0  0  0  0  0  0  0  0  0
   47.4117  114.8940   33.3022 C   0  0  0  0  0  0  0  0  0  0  0  0
   46.7516  115.4863   32.8403 O   0  0  0  0  0  0  0  0  0  0  0  0
   48.3475  115.2117   33.4549 N   0  0  0  0  0  0  0  0  0  0  0  0
   48.9973  114.6285   33.9097 H   0  0  0  0  0  0  0  0  0  0  0  0
   47.7649  113.2120   33.5177 N   0  0  0  0  0  0  0  0  0  0  0  0
   47.1359  113.9838   33.6115 C   0  0  0  0  0  0  0  0  0  0  0  0
   47.4837  112.2837   33.8332 H   0  0  0  0  0  0  0  0  0  0  0  0
   48.6877  113.3532   33.1066 H   0  0  0  0  0  0  0  0  0  0  0  0
   46.2312  113.8454   34.0145 C   0  0  0  0  0  0  0  0  0  0  0  0
   45.4321  113.7357   33.4236 O   0  0  0  0  0  0  0  0  0  0  0  0
   46.1258  113.8168   35.0085 C   0  0  0  0  0  0  0  0  0  0  0  0
   45.5344  113.7635   32.4593 H   0  0  0  0  0  0  0  0  0  0  0  0
   48.4234  116.9232   33.7093 C   0  0  0  0  0  0  0  0  0  0  0  0
   49.1089  117.2665   34.3512 C   0  0  0  0  0  0  0  0  0  0  0  0
   48.8964  118.0465   34.9400 C   0  0  0  0  0  0  0  0  0  0  0  0
   48.3199  117.9210   35.7474 O   0  0  0  0  0  0  0  0  0  0  0  0
   49.2604  118.9518   34.7213 N   0  0  0  0  0  0  0  0  0  0  0  0
   49.8280  119.0753   33.9265 H   0  0  0  0  0  0  0  0  0  0  0  0
   49.0512  119.7196   35.3009 H   0  0  0  0  0  0  0  0  0  0  0  0
   51.0194  116.3332   31.0408 C   0  0  0  0  0  0  0  0  0  0  0  0
   51.9298  116.0992   31.3819 C   0  0  0  0  0  0  0  0  0  0  0  0
   52.6652  116.7760   31.3489 C   0  0  0  0  0  0  0  0  0  0  0  0
   52.8962  117.2217   30.4840 O   0  0  0  0  0  0  0  0  0  0  0  0
   53.1698  117.0071   32.1808 N   0  0  0  0  0  0  0  0  0  0  0  0
   52.9425  116.5683   33.0323 H   0  0  0  0  0  0  0  0  0  0  0  0
   53.8939  117.6734   32.1483 H   0  0  0  0  0  0  0  0  0  0  0  0
   46.3529  113.8223   29.7029 C   0  0  0  0  0  0  0  0  0  0  0  0
   45.7310  114.2941   30.3279 O   0  0  0  0  0  0  0  0  0  0  0  0
   45.1742  115.0188   30.0027 H   0  0  0  0  0  0  0  0  0  0  0  0
   46.7282  110.0193   31.0581 C   0  0  0  0  0  0  0  0  0  0  0  0
   47.3220  109.6460   31.7709 C   0  0  0  0  0  0  0  0  0  0  0  0
   47.4994  108.6765   31.9400 C   0  0  0  0  0  0  0  0  0  0  0  0
   48.1298  108.6080   32.7133 N   0  0  0  0  0  0  0  0  0  0  0  0
   48.3421  109.5352   33.0220 C   0  0  0  0  0  0  0  0  0  0  0  0
   47.8428  110.1767   32.4395 N   0  0  0  0  0  0  0  0  0  0  0  0
   47.8609  111.1584   32.5117 H   0  0  0  0  0  0  0  0  0  0  0  0
 95 96  1  0  0  0
 95 97  1  0  0  0
 95 98  1  0  0  0
 96 91  1  0  0  0
 96 99  1  0  0  0
 91 92  2  0  0  0
 91 93  1  0  0  0
 93 90  1  0  0  0
 93 94  1  0  0  0
 90103  1  0  0  0
 90 86  1  0  0  0
103104  1  0  0  0
104105  1  0  0  0
105106  2  0  0  0
105107  1  0  0  0
107108  1  0  0  0
107109  1  0  0  0
 86 87  2  0  0  0
 86 88  1  0  0  0
 88 85  1  0  0  0
 88 89  1  0  0  0
 85110  1  0  0  0
 85 81  1  0  0  0
110111  1  0  0  0
111112  1  0  0  0
112113  2  0  0  0
112114  1  0  0  0
114115  1  0  0  0
114116  1  0  0  0
 81 82  2  0  0  0
 81 83  1  0  0  0
 83 79  1  0  0  0
 83 84  1  0  0  0
 79 80  1  0  0  0
 79 75  1  0  0  0
 75 76  2  0  0  0
 75 77  1  0  0  0
 77 74  1  0  0  0
 77 78  1  0  0  0
 74117  1  0  0  0
 74 70  1  0  0  0
117118  1  0  0  0
118119  1  0  0  0
 70 71  2  0  0  0
 70 72  1  0  0  0
 72 69  1  0  0  0
 72 73  1  0  0  0
 69120  1  0  0  0
 69 65  1  0  0  0
120121  1  0  0  0
121125  1  0  0  0
121122  2  0  0  0
122123  1  0  0  0
123124  2  0  0  0
124125  1  0  0  0
125126  1  0  0  0
 65 66  2  0  0  0
 65 67  1  0  0  0
 67  1  1  0  0  0
 67 68  1  0  0  0
  1  2  1  0  0  0
  1 10  1  0  0  0
  2  8  2  0  0  0
  2  3  1  0  0  0
  3  4  2  0  0  0
  4  5  1  0  0  0
  5  6  1  0  0  0
  5  7  2  0  0  0
  6  9  1  0  0  0
  7  8  1  0  0  0
 10 11  2  0  0  0
 10 12  1  0  0  0
 12 14  1  0  0  0
 12 13  1  0  0  0
 14 58  1  0  0  0
 14 15  1  0  0  0
 58 59  1  0  0  0
 59 60  1  0  0  0
 60 61  1  0  0  0
 61 62  1  0  0  0
 62 63  1  0  0  0
 62 64  1  0  0  0
 15 16  2  0  0  0
 15 17  1  0  0  0
 17 19  1  0  0  0
 17 18  1  0  0  0
 19 51  1  0  0  0
 19 20  1  0  0  0
 51 52  1  0  0  0
 52 53  1  0  0  0
 53 54  2  0  0  0
 53 55  1  0  0  0
 55 56  1  0  0  0
 55 57  1  0  0  0
 20 21  2  0  0  0
 20 22  1  0  0  0
 22 24  1  0  0  0
 22 23  1  0  0  0
 24 44  1  0  0  0
 24 25  1  0  0  0
 44 45  1  0  0  0
 45 49  1  0  0  0
 45 46  2  0  0  0
 46 47  1  0  0  0
 47 48  2  0  0  0
 48 49  1  0  0  0
 49 50  1  0  0  0
 25 26  2  0  0  0
 25 27  1  0  0  0
 27 29  1  0  0  0
 27 28  1  0  0  0
 29 41  1  0  0  0
 29 30  1  0  0  0
 41 42  1  0  0  0
 42 43  1  0  0  0
 30 31  2  0  0  0
 30 32  1  0  0  0
 32 36  1  0  0  0
 32 33  1  0  0  0
 33 34  1  0  0  0
 34 35  1  0  0  0
 35 36  1  0  0  0
 36 37  1  0  0  0
 37 38  1  0  0  0
 37 39  2  0  0  0
 38 40  1  0  0  0
 99100  1  0  0  0
 99101  1  0  0  0
100102  1  0  0  0
M  END
> <minimizedAffinity>
-8.03913

$$$$



126129  0  0  0  0  0  0  0  0999 V2000
   37.5780  111.2886   28.6120 C   0  0  0  0  0  0  0  0  0  0  0  0
   37.4836  110.3037   28.4670 C   0  0  0  0  0  0  0  0  0  0  0  0
   37.9556  109.8632   27.7033 C   0  0  0  0  0  0  0  0  0  0  0  0
   37.8611  108.8783   27.5583 C   0  0  0  0  0  0  0  0  0  0  0  0
   37.2947  108.3338   28.1770 C   0  0  0  0  0  0  0  0  0  0  0  0
   37.2003  107.3489   28.0319 O   0  0  0  0  0  0  0  0  0  0  0  0
   36.8227  108.7743   28.9406 C   0  0  0  0  0  0  0  0  0  0  0  0
   36.9171  109.7592   29.0857 C   0  0  0  0  0  0  0  0  0  0  0  0
   37.6426  106.9362   27.3164 H   0  0  0  0  0  0  0  0  0  0  0  0
   38.3156  111.6407   29.1882 C   0  0  0  0  0  0  0  0  0  0  0  0
   38.2058  112.5139   29.6630 O   0  0  0  0  0  0  0  0  0  0  0  0
   39.1630  111.1195   29.2896 N   0  0  0  0  0  0  0  0  0  0  0  0
   39.2711  110.2598   28.8222 H   0  0  0  0  0  0  0  0  0  0  0  0
   39.9007  111.4716   29.8658 C   0  0  0  0  0  0  0  0  0  0  0  0
   40.7460  111.8044   29.4480 C   0  0  0  0  0  0  0  0  0  0  0  0
   41.2272  111.2412   28.7763 O   0  0  0  0  0  0  0  0  0  0  0  0
   41.1102  112.7005   29.7019 N   0  0  0  0  0  0  0  0  0  0  0  0
   40.6364  113.2549   30.3632 H   0  0  0  0  0  0  0  0  0  0  0  0
   41.9555  113.0333   29.2841 C   0  0  0  0  0  0  0  0  0  0  0  0
   42.8286  112.9101   29.7558 C   0  0  0  0  0  0  0  0  0  0  0  0
   43.0580  113.4850   30.5413 O   0  0  0  0  0  0  0  0  0  0  0  0
   43.4723  112.2121   29.4421 N   0  0  0  0  0  0  0  0  0  0  0  0
   43.2465  111.6461   28.6688 H   0  0  0  0  0  0  0  0  0  0  0  0
   44.3454  112.0889   29.9139 C   0  0  0  0  0  0  0  0  0  0  0  0
   45.1895  112.4303   29.5005 C   0  0  0  0  0  0  0  0  0  0  0  0
   45.2938  112.4329   28.5060 O   0  0  0  0  0  0  0  0  0  0  0  0
   45.9294  112.7691   30.0817 N   0  0  0  0  0  0  0  0  0  0  0  0
   45.8267  112.7665   31.0608 H   0  0  0  0  0  0  0  0  0  0  0  0
   46.7736  113.1105   29.6684 C   0  0  0  0  0  0  0  0  0  0  0  0
   47.0516  114.0604   29.8111 C   0  0  0  0  0  0  0  0  0  0  0  0
   47.1768  114.6679   29.0267 O   0  0  0  0  0  0  0  0  0  0  0  0
   47.2043  114.4028   30.7382 N   0  0  0  0  0  0  0  0  0  0  0  0
   47.1057  113.8766   31.5828 C   0  0  0  0  0  0  0  0  0  0  0  0
   47.3229  114.4802   32.3499 C   0  0  0  0  0  0  0  0  0  0  0  0
   47.5557  115.3793   31.9794 C   0  0  0  0  0  0  0  0  0  0  0  0
   47.4824  115.3315   30.9833 C   0  0  0  0  0  0  0  0  0  0  0  0
   47.6566  116.0808   30.3445 C   0  0  0  0  0  0  0  0  0  0  0  0
   48.5429  116.1519   29.8868 O   0  0  0  0  0  0  0  0  0  0  0  0
   46.9446  116.7593   30.1634 O   0  0  0  0  0  0  0  0  0  0  0  0
   49.2101  115.5162   30.0565 H   0  0  0  0  0  0  0  0  0  0  0  0
   47.3398  112.5019   29.1123 C   0  0  0  0  0  0  0  0  0  0  0  0
   48.0754  111.9754   29.5384 S   0  0  0  0  0  0  0  0  0  0  0  0
   48.3059  112.0867   30.8741 H   0  0  0  0  0  0  0  0  0  0  0  0
   44.3743  111.6243   30.7989 C   0  0  0  0  0  0  0  0  0  0  0  0
   44.1426  110.6536   30.8619 C   0  0  0  0  0  0  0  0  0  0  0  0
   43.5307  110.2377   31.5347 C   0  0  0  0  0  0  0  0  0  0  0  0
   43.4920  109.2554   31.3517 N   0  0  0  0  0  0  0  0  0  0  0  0
   44.0801  109.0640   30.5658 C   0  0  0  0  0  0  0  0  0  0  0  0
   44.4822  109.9282   30.2631 N   0  0  0  0  0  0  0  0  0  0  0  0
   45.1033  110.0444   29.5082 H   0  0  0  0  0  0  0  0  0  0  0  0
   41.9278  113.4893   28.3946 C   0  0  0  0  0  0  0  0  0  0  0  0
   41.4895  114.3836   28.3046 C   0  0  0  0  0  0  0  0  0  0  0  0
   41.2188  114.7193   27.4023 C   0  0  0  0  0  0  0  0  0  0  0  0
   41.0415  114.0723   26.6606 O   0  0  0  0  0  0  0  0  0  0  0  0
   41.1254  115.7019   27.2417 N   0  0  0  0  0  0  0  0  0  0  0  0
   41.2999  116.3387   27.9719 H   0  0  0  0  0  0  0  0  0  0  0  0
   40.8589  116.0323   26.3535 H   0  0  0  0  0  0  0  0  0  0  0  0
   39.7929  111.4907   30.8598 C   0  0  0  0  0  0  0  0  0  0  0  0
   39.9158  110.6532   31.3923 C   0  0  0  0  0  0  0  0  0  0  0  0
   39.7147  110.6495   32.3718 C   0  0  0  0  0  0  0  0  0  0  0  0
   39.8755  109.8236   32.9122 C   0  0  0  0  0  0  0  0  0  0  0  0
   39.6437  109.8094   33.8848 N   0  0  0  0  0  0  0  0  0  0  0  0
   39.2431  110.6374   34.3258 H   0  0  0  0  0  0  0  0  0  0  0  0
   39.8078  108.9670   34.4360 H   0  0  0  0  0  0  0  0  0  0  0  0
   37.2447  112.5272   27.4481 C   0  0  0  0  0  0  0  0  0  0  0  0
   38.1977  112.5002   27.1463 O   0  0  0  0  0  0  0  0  0  0  0  0
   36.9348  111.9214   28.1809 N   0  0  0  0  0  0  0  0  0  0  0  0
   35.9966  111.9480   28.4779 H   0  0  0  0  0  0  0  0  0  0  0  0
   36.6015  113.1600   27.0170 C   0  0  0  0  0  0  0  0  0  0  0  0
   35.4053  113.9682   27.9739 C   0  0  0  0  0  0  0  0  0  0  0  0
   36.0867  114.6440   28.2550 O   0  0  0  0  0  0  0  0  0  0  0  0
   35.6627  113.2262   27.3549 N   0  0  0  0  0  0  0  0  0  0  0  0
   34.9919  112.5609   27.0782 H   0  0  0  0  0  0  0  0  0  0  0  0
   34.4665  114.0344   28.3119 C   0  0  0  0  0  0  0  0  0  0  0  0
   33.5419  112.9125   29.2535 C   0  0  0  0  0  0  0  0  0  0  0  0
   33.0995  112.5786   28.4212 O   0  0  0  0  0  0  0  0  0  0  0  0
   34.2254  113.6404   29.1988 N   0  0  0  0  0  0  0  0  0  0  0  0
   34.6609  113.9692   30.0182 H   0  0  0  0  0  0  0  0  0  0  0  0
   33.3008  112.5185   30.1404 C   0  0  0  0  0  0  0  0  0  0  0  0
   32.6822  113.0093   30.7540 C   0  0  0  0  0  0  0  0  0  0  0  0
   33.1965  111.0705   31.0850 C   0  0  0  0  0  0  0  0  0  0  0  0
   32.3372  111.3919   31.4828 O   0  0  0  0  0  0  0  0  0  0  0  0
   33.6784  111.6338   30.4138 N   0  0  0  0  0  0  0  0  0  0  0  0
   34.5244  111.3174   30.0221 H   0  0  0  0  0  0  0  0  0  0  0  0
   33.5741  110.1857   31.3584 C   0  0  0  0  0  0  0  0  0  0  0  0
   32.8546  108.7003   30.8332 C   0  0  0  0  0  0  0  0  0  0  0  0
   32.1887  108.7600   31.5768 O   0  0  0  0  0  0  0  0  0  0  0  0
   33.5473  109.4132   30.7240 N   0  0  0  0  0  0  0  0  0  0  0  0
   34.2030  109.3545   29.9920 H   0  0  0  0  0  0  0  0  0  0  0  0
   32.8279  107.9277   30.1988 C   0  0  0  0  0  0  0  0  0  0  0  0
   31.6945  107.8739   28.8902 C   0  0  0  0  0  0  0  0  0  0  0  0
   32.3086  108.4351   28.3352 O   0  0  0  0  0  0  0  0  0  0  0  0
   31.9542  107.6202   29.8220 N   0  0  0  0  0  0  0  0  0  0  0  0
   31.3496  107.0677   30.3683 H   0  0  0  0  0  0  0  0  0  0  0  0
   30.1398  108.2366   28.2184 N   0  0  0  0  0  0  0  0  0  0  0  0
   30.8207  107.5663   28.5133 C   0  0  0  0  0  0  0  0  0  0  0  0
   29.2486  107.9230   27.8340 H   0  0  0  0  0  0  0  0  0  0  0  0
   30.3365  109.2341   28.3019 H   0  0  0  0  0  0  0  0  0  0  0  0
   30.6280  106.5885   28.4314 C   0  0  0  0  0  0  0  0  0  0  0  0
   31.2484  105.9981   27.9152 O   0  0  0  0  0  0  0  0  0  0  0  0
   29.8148  106.2012   28.8658 C   0  0  0  0  0  0  0  0  0  0  0  0
   32.0372  106.3739   27.4939 H   0  0  0  0  0  0  0  0  0  0  0  0
   33.6749  107.4627   29.9413 C   0  0  0  0  0  0  0  0  0  0  0  0
   33.8914  106.5670   30.3296 C   0  0  0  0  0  0  0  0  0  0  0  0
   34.5009  105.9436   29.8396 C   0  0  0  0  0  0  0  0  0  0  0  0
   34.1644  105.4357   29.0467 O   0  0  0  0  0  0  0  0  0  0  0  0
   35.4469  105.8283   30.1426 N   0  0  0  0  0  0  0  0  0  0  0  0
   35.7782  106.3284   30.9232 H   0  0  0  0  0  0  0  0  0  0  0  0
   36.0469  105.2146   29.6602 H   0  0  0  0  0  0  0  0  0  0  0  0
   33.9783  110.0736   32.2661 C   0  0  0  0  0  0  0  0  0  0  0  0
   34.9724  110.0496   32.3712 C   0  0  0  0  0  0  0  0  0  0  0  0
   35.3773  109.7123   33.2211 C   0  0  0  0  0  0  0  0  0  0  0  0
   34.8351  109.1483   33.8439 O   0  0  0  0  0  0  0  0  0  0  0  0
   36.3245  109.9389   33.4481 N   0  0  0  0  0  0  0  0  0  0  0  0
   36.8584  110.4941   32.8349 H   0  0  0  0  0  0  0  0  0  0  0  0
   36.7232  109.6068   34.2848 H   0  0  0  0  0  0  0  0  0  0  0  0
   33.7687  114.4946   27.7629 C   0  0  0  0  0  0  0  0  0  0  0  0
   33.5171  115.4410   27.9653 O   0  0  0  0  0  0  0  0  0  0  0  0
   32.8403  115.8874   27.4328 H   0  0  0  0  0  0  0  0  0  0  0  0
   36.8972  113.7266   26.2478 C   0  0  0  0  0  0  0  0  0  0  0  0
   36.6947  113.4427   25.3106 C   0  0  0  0  0  0  0  0  0  0  0  0
   35.8317  113.5865   24.8264 C   0  0  0  0  0  0  0  0  0  0  0  0
   35.9232  113.1977   23.9095 N   0  0  0  0  0  0  0  0  0  0  0  0
   36.8429  112.8136   23.8272 C   0  0  0  0  0  0  0  0  0  0  0  0
   37.3196  112.9650   24.6932 N   0  0  0  0  0  0  0  0  0  0  0  0
   38.2422  112.6917   24.9012 H   0  0  0  0  0  0  0  0  0  0  0  0
 95 96  1  0  0  0
 95 97  1  0  0  0
 95 98  1  0  0  0
 96 91  1  0  0  0
 96 99  1  0  0  0
 91 92  2  0  0  0
 91 93  1  0  0  0
 93 90  1  0  0  0
 93 94  1  0  0  0
 90103  1  0  0  0
 90 86  1  0  0  0
103104  1  0  0  0
104105  1  0  0  0
105106  2  0  0  0
105107  1  0  0  0
107108  1  0  0  0
107109  1  0  0  0
 86 87  2  0  0  0
 86 88  1  0  0  0
 88 85  1  0  0  0
 88 89  1  0  0  0
 85110  1  0  0  0
 85 81  1  0  0  0
110111  1  0  0  0
111112  1  0  0  0
112113  2  0  0  0
112114  1  0  0  0
114115  1  0  0  0
114116  1  0  0  0
 81 82  2  0  0  0
 81 83  1  0  0  0
 83 79  1  0  0  0
 83 84  1  0  0  0
 79 80  1  0  0  0
 79 75  1  0  0  0
 75 76  2  0  0  0
 75 77  1  0  0  0
 77 74  1  0  0  0
 77 78  1  0  0  0
 74117  1  0  0  0
 74 70  1  0  0  0
117118  1  0  0  0
118119  1  0  0  0
 70 71  2  0  0  0
 70 72  1  0  0  0
 72 69  1  0  0  0
 72 73  1  0  0  0
 69120  1  0  0  0
 69 65  1  0  0  0
120121  1  0  0  0
121125  1  0  0  0
121122  2  0  0  0
122123  1  0  0  0
123124  2  0  0  0
124125  1  0  0  0
125126  1  0  0  0
 65 66  2  0  0  0
 65 67  1  0  0  0
 67  1  1  0  0  0
 67 68  1  0  0  0
  1  2  1  0  0  0
  1 10  1  0  0  0
  2  8  2  0  0  0
  2  3  1  0  0  0
  3  4  2  0  0  0
  4  5  1  0  0  0
  5  6  1  0  0  0
  5  7  2  0  0  0
  6  9  1  0  0  0
  7  8  1  0  0  0
 10 11  2  0  0  0
 10 12  1  0  0  0
 12 14  1  0  0  0
 12 13  1  0  0  0
 14 58  1  0  0  0
 14 15  1  0  0  0
 58 59  1  0  0  0
 59 60  1  0  0  0
 60 61  1  0  0  0
 61 62  1  0  0  0
 62 63  1  0  0  0
 62 64  1  0  0  0
 15 16  2  0  0  0
 15 17  1  0  0  0
 17 19  1  0  0  0
 17 18  1  0  0  0
 19 51  1  0  0  0
 19 20  1  0  0  0
 51 52  1  0  0  0
 52 53  1  0  0  0
 53 54  2  0  0  0
 53 55  1  0  0  0
 55 56  1  0  0  0
 55 57  1  0  0  0
 20 21  2  0  0  0
 20 22  1  0  0  0
 22 24  1  0  0  0
 22 23  1  0  0  0
 24 44  1  0  0  0
 24 25  1  0  0  0
 44 45  1  0  0  0
 45 49  1  0  0  0
 45 46  2  0  0  0
 46 47  1  0  0  0
 47 48  2  0  0  0
 48 49  1  0  0  0
 49 50  1  0  0  0
 25 26  2  0  0  0
 25 27  1  0  0  0
 27 29  1  0  0  0
 27 28  1  0  0  0
 29 41  1  0  0  0
 29 30  1  0  0  0
 41 42  1  0  0  0
 42 43  1  0  0  0
 30 31  2  0  0  0
 30 32  1  0  0  0
 32 36  1  0  0  0
 32 33  1  0  0  0
 33 34  1  0  0  0
 34 35  1  0  0  0
 35 36  1  0  0  0
 36 37  1  0  0  0
 37 38  1  0  0  0
 37 39  2  0  0  0
 38 40  1  0  0  0
 99100  1  0  0  0
 99101  1  0  0  0
100102  1  0  0  0
M  END
> <minimizedAffinity>
-8.02043

$$$$



126129  0  0  0  0  0  0  0  0999 V2000
   37.6346  111.2065   28.3788 C   0  0  0  0  0  0  0  0  0  0  0  0
   37.4049  110.2333   28.3819 C   0  0  0  0  0  0  0  0  0  0  0  0
   37.9555  109.5878   27.8525 C   0  0  0  0  0  0  0  0  0  0  0  0
   37.7257  108.6145   27.8557 C   0  0  0  0  0  0  0  0  0  0  0  0
   36.9452  108.2868   28.3881 C   0  0  0  0  0  0  0  0  0  0  0  0
   36.7154  107.3135   28.3912 O   0  0  0  0  0  0  0  0  0  0  0  0
   36.3946  108.9322   28.9174 C   0  0  0  0  0  0  0  0  0  0  0  0
   36.6244  109.9054   28.9143 C   0  0  0  0  0  0  0  0  0  0  0  0
   37.2314  106.7088   27.8952 H   0  0  0  0  0  0  0  0  0  0  0  0
   38.3536  111.5523   28.9817 C   0  0  0  0  0  0  0  0  0  0  0  0
   38.2914  112.4784   29.3539 O   0  0  0  0  0  0  0  0  0  0  0  0
   39.1347  110.9722   29.2123 N   0  0  0  0  0  0  0  0  0  0  0  0
   39.1960  110.0605   28.8458 H   0  0  0  0  0  0  0  0  0  0  0  0
   39.8538  111.3181   29.8152 C   0  0  0  0  0  0  0  0  0  0  0  0
   40.7226  111.6291   29.4300 C   0  0  0  0  0  0  0  0  0  0  0  0
   41.2257  111.0439   28.7942 O   0  0  0  0  0  0  0  0  0  0  0  0
   41.0882  112.5255   29.6806 N   0  0  0  0  0  0  0  0  0  0  0  0
   40.5929  113.1017   30.3065 H   0  0  0  0  0  0  0  0  0  0  0  0
   41.9570  112.8366   29.2954 C   0  0  0  0  0  0  0  0  0  0  0  0
   42.8019  112.7341   29.8204 C   0  0  0  0  0  0  0  0  0  0  0  0
   43.0052  113.3653   30.5688 O   0  0  0  0  0  0  0  0  0  0  0  0
   43.4436  112.0003   29.5969 N   0  0  0  0  0  0  0  0  0  0  0  0
   43.2435  111.3789   28.8600 H   0  0  0  0  0  0  0  0  0  0  0  0
   44.2885  111.8978   30.1218 C   0  0  0  0  0  0  0  0  0  0  0  0
   45.1600  112.1912   29.7288 C   0  0  0  0  0  0  0  0  0  0  0  0
   45.3475  112.0385   28.7585 O   0  0  0  0  0  0  0  0  0  0  0  0
   45.8440  112.6371   30.3062 N   0  0  0  0  0  0  0  0  0  0  0  0
   45.6593  112.7874   31.2614 H   0  0  0  0  0  0  0  0  0  0  0  0
   46.7154  112.9305   29.9132 C   0  0  0  0  0  0  0  0  0  0  0  0
   46.9737  113.8963   29.9345 C   0  0  0  0  0  0  0  0  0  0  0  0
   47.1460  114.3868   29.0803 O   0  0  0  0  0  0  0  0  0  0  0  0
   47.0596  114.3717   30.8102 N   0  0  0  0  0  0  0  0  0  0  0  0
   46.9090  113.9708   31.7138 C   0  0  0  0  0  0  0  0  0  0  0  0
   47.0675  114.6828   32.3979 C   0  0  0  0  0  0  0  0  0  0  0  0
   47.3161  115.5236   31.9170 C   0  0  0  0  0  0  0  0  0  0  0  0
   47.3112  115.3313   30.9357 C   0  0  0  0  0  0  0  0  0  0  0  0
   47.5211  115.9840   30.2078 C   0  0  0  0  0  0  0  0  0  0  0  0
   46.8138  116.6089   29.8773 O   0  0  0  0  0  0  0  0  0  0  0  0
   48.4384  116.0120   29.8104 O   0  0  0  0  0  0  0  0  0  0  0  0
   45.9543  116.5827   30.2496 H   0  0  0  0  0  0  0  0  0  0  0  0
   47.3288  112.2579   29.4989 C   0  0  0  0  0  0  0  0  0  0  0  0
   48.0226  111.8032   30.0572 S   0  0  0  0  0  0  0  0  0  0  0  0
   48.1322  112.0992   31.3800 H   0  0  0  0  0  0  0  0  0  0  0  0
   44.2619  111.5020   31.0398 C   0  0  0  0  0  0  0  0  0  0  0  0
   44.0680  110.5283   31.1590 C   0  0  0  0  0  0  0  0  0  0  0  0
   43.4108  110.1341   31.8014 C   0  0  0  0  0  0  0  0  0  0  0  0
   43.4339  109.1400   31.6962 N   0  0  0  0  0  0  0  0  0  0  0  0
   44.1054  108.9196   30.9886 C   0  0  0  0  0  0  0  0  0  0  0  0
   44.4973  109.7777   30.6567 N   0  0  0  0  0  0  0  0  0  0  0  0
   45.1851  109.8676   29.9580 H   0  0  0  0  0  0  0  0  0  0  0  0
   41.9809  113.2502   28.3852 C   0  0  0  0  0  0  0  0  0  0  0  0
   41.4985  114.1091   28.2135 C   0  0  0  0  0  0  0  0  0  0  0  0
   41.3663  114.4294   27.2755 C   0  0  0  0  0  0  0  0  0  0  0  0
   40.5309  114.1925   26.7793 O   0  0  0  0  0  0  0  0  0  0  0  0
   42.0693  114.9866   26.8336 N   0  0  0  0  0  0  0  0  0  0  0  0
   42.8917  115.2197   27.3221 H   0  0  0  0  0  0  0  0  0  0  0  0
   41.9391  115.3019   25.9101 H   0  0  0  0  0  0  0  0  0  0  0  0
   39.7039  111.3528   30.8033 C   0  0  0  0  0  0  0  0  0  0  0  0
   39.7947  110.5219   31.3523 C   0  0  0  0  0  0  0  0  0  0  0  0
   39.6034  110.5475   32.3335 C   0  0  0  0  0  0  0  0  0  0  0  0
   39.7800  109.7416   32.8986 C   0  0  0  0  0  0  0  0  0  0  0  0
   39.7890  109.8220   33.8953 N   0  0  0  0  0  0  0  0  0  0  0  0
   39.6181  110.7262   34.3355 H   0  0  0  0  0  0  0  0  0  0  0  0
   39.9691  109.0000   34.4717 H   0  0  0  0  0  0  0  0  0  0  0  0
   37.5490  112.0999   26.8974 C   0  0  0  0  0  0  0  0  0  0  0  0
   38.4417  111.7386   26.6279 O   0  0  0  0  0  0  0  0  0  0  0  0
   37.1455  111.8338   27.7728 N   0  0  0  0  0  0  0  0  0  0  0  0
   36.2667  112.1894   28.0382 H   0  0  0  0  0  0  0  0  0  0  0  0
   37.0598  112.7272   26.2915 C   0  0  0  0  0  0  0  0  0  0  0  0
   35.6640  113.6892   26.6466 C   0  0  0  0  0  0  0  0  0  0  0  0
   35.0755  112.9759   26.2659 O   0  0  0  0  0  0  0  0  0  0  0  0
   36.6561  113.5648   26.6594 N   0  0  0  0  0  0  0  0  0  0  0  0
   37.2355  114.2671   27.0342 H   0  0  0  0  0  0  0  0  0  0  0  0
   35.2602  114.5268   27.0146 C   0  0  0  0  0  0  0  0  0  0  0  0
   34.4588  114.4301   28.5470 C   0  0  0  0  0  0  0  0  0  0  0  0
   35.3451  114.4227   29.0100 O   0  0  0  0  0  0  0  0  0  0  0  0
   34.4164  114.4821   27.5493 N   0  0  0  0  0  0  0  0  0  0  0  0
   33.5438  114.4893   27.0934 H   0  0  0  0  0  0  0  0  0  0  0  0
   33.6149  114.3854   29.0817 C   0  0  0  0  0  0  0  0  0  0  0  0
   32.7475  114.6664   28.6712 C   0  0  0  0  0  0  0  0  0  0  0  0
   33.0005  113.3507   30.3274 C   0  0  0  0  0  0  0  0  0  0  0  0
   32.3389  112.9675   29.6828 O   0  0  0  0  0  0  0  0  0  0  0  0
   33.6385  114.0597   30.0268 N   0  0  0  0  0  0  0  0  0  0  0  0
   34.2898  114.4369   30.6614 H   0  0  0  0  0  0  0  0  0  0  0  0
   33.0241  113.0249   31.2726 C   0  0  0  0  0  0  0  0  0  0  0  0
   33.4714  111.4135   31.7231 C   0  0  0  0  0  0  0  0  0  0  0  0
   34.4323  111.6886   31.7532 O   0  0  0  0  0  0  0  0  0  0  0  0
   32.7673  112.0816   31.4828 N   0  0  0  0  0  0  0  0  0  0  0  0
   31.8213  111.8108   31.4532 H   0  0  0  0  0  0  0  0  0  0  0  0
   33.2147  110.4701   31.9334 C   0  0  0  0  0  0  0  0  0  0  0  0
   32.7495  109.3247   30.7202 C   0  0  0  0  0  0  0  0  0  0  0  0
   33.7103  109.0891   30.5743 O   0  0  0  0  0  0  0  0  0  0  0  0
   32.5017  110.0152   31.3998 N   0  0  0  0  0  0  0  0  0  0  0  0
   31.5558  110.2472   31.5435 H   0  0  0  0  0  0  0  0  0  0  0  0
   31.4480  108.1865   30.6186 N   0  0  0  0  0  0  0  0  0  0  0  0
   32.0365  108.8698   30.1866 C   0  0  0  0  0  0  0  0  0  0  0  0
   30.7207  107.7225   30.0744 H   0  0  0  0  0  0  0  0  0  0  0  0
   31.5750  107.9534   31.6035 H   0  0  0  0  0  0  0  0  0  0  0  0
   31.9120  109.0983   29.2211 C   0  0  0  0  0  0  0  0  0  0  0  0
   31.8261  110.0543   28.9405 O   0  0  0  0  0  0  0  0  0  0  0  0
   31.8734  108.3708   28.5361 C   0  0  0  0  0  0  0  0  0  0  0  0
   31.8635  110.7600   29.6050 H   0  0  0  0  0  0  0  0  0  0  0  0
   33.6708  109.9817   32.6772 C   0  0  0  0  0  0  0  0  0  0  0  0
   33.2555  109.9549   33.5864 C   0  0  0  0  0  0  0  0  0  0  0  0
   33.5826  109.2986   34.2664 C   0  0  0  0  0  0  0  0  0  0  0  0
   33.4770  108.3173   34.1056 O   0  0  0  0  0  0  0  0  0  0  0  0
   34.0153  109.6237   35.1073 N   0  0  0  0  0  0  0  0  0  0  0  0
   34.1193  110.5898   35.2657 H   0  0  0  0  0  0  0  0  0  0  0  0
   34.3373  108.9776   35.7767 H   0  0  0  0  0  0  0  0  0  0  0  0
   33.3044  113.6425   32.0075 C   0  0  0  0  0  0  0  0  0  0  0  0
   32.6145  114.0704   32.5914 C   0  0  0  0  0  0  0  0  0  0  0  0
   32.8847  114.7660   33.2570 C   0  0  0  0  0  0  0  0  0  0  0  0
   33.1852  115.6671   32.9446 O   0  0  0  0  0  0  0  0  0  0  0  0
   32.8543  114.5604   34.2353 N   0  0  0  0  0  0  0  0  0  0  0  0
   32.5584  113.6733   34.5429 H   0  0  0  0  0  0  0  0  0  0  0  0
   33.1203  115.2453   34.8907 H   0  0  0  0  0  0  0  0  0  0  0  0
   35.7004  115.4090   26.8478 C   0  0  0  0  0  0  0  0  0  0  0  0
   35.5477  115.8886   25.9836 O   0  0  0  0  0  0  0  0  0  0  0  0
   35.9747  116.7444   25.8219 H   0  0  0  0  0  0  0  0  0  0  0  0
   36.9744  112.5169   25.3175 C   0  0  0  0  0  0  0  0  0  0  0  0
   37.4134  113.1053   24.6385 C   0  0  0  0  0  0  0  0  0  0  0  0
   37.2945  113.0490   23.6473 C   0  0  0  0  0  0  0  0  0  0  0  0
   37.8560  113.7623   23.2276 N   0  0  0  0  0  0  0  0  0  0  0  0
   38.3220  114.2593   23.9597 C   0  0  0  0  0  0  0  0  0  0  0  0
   38.0484  113.8532   24.8316 N   0  0  0  0  0  0  0  0  0  0  0  0
   38.3511  114.1396   25.7236 H   0  0  0  0  0  0  0  0  0  0  0  0
 95 96  1  0  0  0
 95 97  1  0  0  0
 95 98  1  0  0  0
 96 91  1  0  0  0
 96 99  1  0  0  0
 91 92  2  0  0  0
 91 93  1  0  0  0
 93 90  1  0  0  0
 93 94  1  0  0  0
 90103  1  0  0  0
 90 86  1  0  0  0
103104  1  0  0  0
104105  1  0  0  0
105106  2  0  0  0
105107  1  0  0  0
107108  1  0  0  0
107109  1  0  0  0
 86 87  2  0  0  0
 86 88  1  0  0  0
 88 85  1  0  0  0
 88 89  1  0  0  0
 85110  1  0  0  0
 85 81  1  0  0  0
110111  1  0  0  0
111112  1  0  0  0
112113  2  0  0  0
112114  1  0  0  0
114115  1  0  0  0
114116  1  0  0  0
 81 82  2  0  0  0
 81 83  1  0  0  0
 83 79  1  0  0  0
 83 84  1  0  0  0
 79 80  1  0  0  0
 79 75  1  0  0  0
 75 76  2  0  0  0
 75 77  1  0  0  0
 77 74  1  0  0  0
 77 78  1  0  0  0
 74117  1  0  0  0
 74 70  1  0  0  0
117118  1  0  0  0
118119  1  0  0  0
 70 71  2  0  0  0
 70 72  1  0  0  0
 72 69  1  0  0  0
 72 73  1  0  0  0
 69120  1  0  0  0
 69 65  1  0  0  0
120121  1  0  0  0
121125  1  0  0  0
121122  2  0  0  0
122123  1  0  0  0
123124  2  0  0  0
124125  1  0  0  0
125126  1  0  0  0
 65 66  2  0  0  0
 65 67  1  0  0  0
 67  1  1  0  0  0
 67 68  1  0  0  0
  1  2  1  0  0  0
  1 10  1  0  0  0
  2  8  2  0  0  0
  2  3  1  0  0  0
  3  4  2  0  0  0
  4  5  1  0  0  0
  5  6  1  0  0  0
  5  7  2  0  0  0
  6  9  1  0  0  0
  7  8  1  0  0  0
 10 11  2  0  0  0
 10 12  1  0  0  0
 12 14  1  0  0  0
 12 13  1  0  0  0
 14 58  1  0  0  0
 14 15  1  0  0  0
 58 59  1  0  0  0
 59 60  1  0  0  0
 60 61  1  0  0  0
 61 62  1  0  0  0
 62 63  1  0  0  0
 62 64  1  0  0  0
 15 16  2  0  0  0
 15 17  1  0  0  0
 17 19  1  0  0  0
 17 18  1  0  0  0
 19 51  1  0  0  0
 19 20  1  0  0  0
 51 52  1  0  0  0
 52 53  1  0  0  0
 53 54  2  0  0  0
 53 55  1  0  0  0
 55 56  1  0  0  0
 55 57  1  0  0  0
 20 21  2  0  0  0
 20 22  1  0  0  0
 22 24  1  0  0  0
 22 23  1  0  0  0
 24 44  1  0  0  0
 24 25  1  0  0  0
 44 45  1  0  0  0
 45 49  1  0  0  0
 45 46  2  0  0  0
 46 47  1  0  0  0
 47 48  2  0  0  0
 48 49  1  0  0  0
 49 50  1  0  0  0
 25 26  2  0  0  0
 25 27  1  0  0  0
 27 29  1  0  0  0
 27 28  1  0  0  0
 29 41  1  0  0  0
 29 30  1  0  0  0
 41 42  1  0  0  0
 42 43  1  0  0  0
 30 31  2  0  0  0
 30 32  1  0  0  0
 32 36  1  0  0  0
 32 33  1  0  0  0
 33 34  1  0  0  0
 34 35  1  0  0  0
 35 36  1  0  0  0
 36 37  1  0  0  0
 37 38  1  0  0  0
 37 39  2  0  0  0
 38 40  1  0  0  0
 99100  1  0  0  0
 99101  1  0  0  0
100102  1  0  0  0
M  END
> <minimizedAffinity>
-8.01861

$$$$



126129  0  0  0  0  0  0  0  0999 V2000
   43.9932  111.7953   30.4634 C   0  0  0  0  0  0  0  0  0  0  0  0
   44.7915  111.9971   29.8960 C   0  0  0  0  0  0  0  0  0  0  0  0
   45.2873  112.8569   30.0181 C   0  0  0  0  0  0  0  0  0  0  0  0
   46.0857  113.0586   29.4506 C   0  0  0  0  0  0  0  0  0  0  0  0
   46.3883  112.4005   28.7612 C   0  0  0  0  0  0  0  0  0  0  0  0
   47.1866  112.6022   28.1938 O   0  0  0  0  0  0  0  0  0  0  0  0
   45.8925  111.5407   28.6392 C   0  0  0  0  0  0  0  0  0  0  0  0
   45.0941  111.3389   29.2065 C   0  0  0  0  0  0  0  0  0  0  0  0
   47.6511  113.4079   28.3082 H   0  0  0  0  0  0  0  0  0  0  0  0
   44.0639  111.1317   31.2081 C   0  0  0  0  0  0  0  0  0  0  0  0
   44.6862  110.3532   31.1267 O   0  0  0  0  0  0  0  0  0  0  0  0
   43.5123  111.2467   32.0343 N   0  0  0  0  0  0  0  0  0  0  0  0
   42.8997  112.0131   32.1144 H   0  0  0  0  0  0  0  0  0  0  0  0
   43.5830  110.5830   32.7791 C   0  0  0  0  0  0  0  0  0  0  0  0
   42.8804  109.8803   32.8910 C   0  0  0  0  0  0  0  0  0  0  0  0
   42.9775  109.1852   33.6033 O   0  0  0  0  0  0  0  0  0  0  0  0
   42.0807  109.8728   32.2907 N   0  0  0  0  0  0  0  0  0  0  0  0
   41.9851  110.5571   31.5895 H   0  0  0  0  0  0  0  0  0  0  0  0
   41.3780  109.1701   32.4027 C   0  0  0  0  0  0  0  0  0  0  0  0
   41.3708  108.3703   31.8025 C   0  0  0  0  0  0  0  0  0  0  0  0
   41.1990  107.4614   32.1827 O   0  0  0  0  0  0  0  0  0  0  0  0
   41.5353  108.4792   30.8221 N   0  0  0  0  0  0  0  0  0  0  0  0
   41.7044  109.3739   30.4478 H   0  0  0  0  0  0  0  0  0  0  0  0
   41.5280  107.6793   30.2220 C   0  0  0  0  0  0  0  0  0  0  0  0
   42.3876  107.2327   29.9737 C   0  0  0  0  0  0  0  0  0  0  0  0
   43.1611  107.7799   29.6538 O   0  0  0  0  0  0  0  0  0  0  0  0
   42.4737  106.2390   30.0453 N   0  0  0  0  0  0  0  0  0  0  0  0
   41.7121  105.7004   30.3602 H   0  0  0  0  0  0  0  0  0  0  0  0
   43.3333  105.7924   29.7970 C   0  0  0  0  0  0  0  0  0  0  0  0
   43.3958  105.2640   28.9503 C   0  0  0  0  0  0  0  0  0  0  0  0
   44.0179  105.5557   28.2238 O   0  0  0  0  0  0  0  0  0  0  0  0
   42.8363  104.4439   28.8303 N   0  0  0  0  0  0  0  0  0  0  0  0
   42.1876  104.0725   29.4946 C   0  0  0  0  0  0  0  0  0  0  0  0
   41.7777  103.2503   29.0997 C   0  0  0  0  0  0  0  0  0  0  0  0
   42.1730  103.1136   28.1914 C   0  0  0  0  0  0  0  0  0  0  0  0
   42.8272  103.8513   28.0249 C   0  0  0  0  0  0  0  0  0  0  0  0
   43.3760  103.9747   27.1982 C   0  0  0  0  0  0  0  0  0  0  0  0
   44.2872  103.5671   27.1374 O   0  0  0  0  0  0  0  0  0  0  0  0
   43.0137  104.5057   26.4321 O   0  0  0  0  0  0  0  0  0  0  0  0
   44.6267  103.0696   27.8551 H   0  0  0  0  0  0  0  0  0  0  0  0
   44.1303  105.8742   30.3954 C   0  0  0  0  0  0  0  0  0  0  0  0
   44.1474  105.3964   31.2737 S   0  0  0  0  0  0  0  0  0  0  0  0
   43.0866  104.6351   31.6543 H   0  0  0  0  0  0  0  0  0  0  0  0
   40.6612  107.3261   29.8702 C   0  0  0  0  0  0  0  0  0  0  0  0
   40.2669  107.7098   29.0352 C   0  0  0  0  0  0  0  0  0  0  0  0
   39.2957  107.8794   28.8677 C   0  0  0  0  0  0  0  0  0  0  0  0
   39.2031  108.2658   27.9501 N   0  0  0  0  0  0  0  0  0  0  0  0
   40.1171  108.3351   27.5503 C   0  0  0  0  0  0  0  0  0  0  0  0
   40.7746  107.9915   28.2210 N   0  0  0  0  0  0  0  0  0  0  0  0
   41.7503  107.9396   28.1007 H   0  0  0  0  0  0  0  0  0  0  0  0
   40.6827  109.2673   33.1147 C   0  0  0  0  0  0  0  0  0  0  0  0
   39.7883  109.6543   32.8907 C   0  0  0  0  0  0  0  0  0  0  0  0
   39.0381  109.5935   33.5491 C   0  0  0  0  0  0  0  0  0  0  0  0
   39.2114  109.7542   34.5208 O   0  0  0  0  0  0  0  0  0  0  0  0
   38.1146  109.3722   33.2359 N   0  0  0  0  0  0  0  0  0  0  0  0
   37.9440  109.2140   32.2792 H   0  0  0  0  0  0  0  0  0  0  0  0
   37.3760  109.3124   33.8841 H   0  0  0  0  0  0  0  0  0  0  0  0
   44.3563  110.6221   33.4119 C   0  0  0  0  0  0  0  0  0  0  0  0
   44.4830  111.4227   33.9977 C   0  0  0  0  0  0  0  0  0  0  0  0
   45.2519  111.4584   34.6361 C   0  0  0  0  0  0  0  0  0  0  0  0
   45.6847  112.3344   34.8491 C   0  0  0  0  0  0  0  0  0  0  0  0
   46.1364  112.4675   35.7313 N   0  0  0  0  0  0  0  0  0  0  0  0
   46.1556  111.7098   36.4139 H   0  0  0  0  0  0  0  0  0  0  0  0
   46.5778  113.3610   35.9485 H   0  0  0  0  0  0  0  0  0  0  0  0
   42.4514  111.8395   29.6754 C   0  0  0  0  0  0  0  0  0  0  0  0
   42.6477  110.9599   29.2420 O   0  0  0  0  0  0  0  0  0  0  0  0
   43.1242  112.2572   30.2861 N   0  0  0  0  0  0  0  0  0  0  0  0
   42.9309  113.1231   30.7128 H   0  0  0  0  0  0  0  0  0  0  0  0
   41.5824  112.3014   29.4981 C   0  0  0  0  0  0  0  0  0  0  0  0
   41.5412  113.7049   28.4840 C   0  0  0  0  0  0  0  0  0  0  0  0
   41.8409  114.2694   29.2531 O   0  0  0  0  0  0  0  0  0  0  0  0
   41.4119  112.7209   28.6065 N   0  0  0  0  0  0  0  0  0  0  0  0
   41.1169  112.1651   27.8493 H   0  0  0  0  0  0  0  0  0  0  0  0
   41.3707  114.1245   27.5925 C   0  0  0  0  0  0  0  0  0  0  0  0
   39.8353  114.3304   26.8179 C   0  0  0  0  0  0  0  0  0  0  0  0
   39.9591  113.4601   26.3412 O   0  0  0  0  0  0  0  0  0  0  0  0
   40.5411  114.6626   27.4435 N   0  0  0  0  0  0  0  0  0  0  0  0
   40.4193  115.5194   27.9127 H   0  0  0  0  0  0  0  0  0  0  0  0
   39.0057  114.8685   26.6689 C   0  0  0  0  0  0  0  0  0  0  0  0
   39.0308  115.8634   26.7664 C   0  0  0  0  0  0  0  0  0  0  0  0
   37.2920  114.6941   26.8493 C   0  0  0  0  0  0  0  0  0  0  0  0
   37.2877  115.4333   27.5228 O   0  0  0  0  0  0  0  0  0  0  0  0
   38.1510  114.4117   26.4223 N   0  0  0  0  0  0  0  0  0  0  0  0
   38.1552  113.6841   25.7592 H   0  0  0  0  0  0  0  0  0  0  0  0
   36.4372  114.2373   26.6028 C   0  0  0  0  0  0  0  0  0  0  0  0
   35.6694  113.1171   27.6778 C   0  0  0  0  0  0  0  0  0  0  0  0
   36.2682  112.3882   27.3458 O   0  0  0  0  0  0  0  0  0  0  0  0
   35.7539  114.0417   27.3062 N   0  0  0  0  0  0  0  0  0  0  0  0
   35.1645  114.7592   27.6330 H   0  0  0  0  0  0  0  0  0  0  0  0
   34.9862  112.9214   28.3812 C   0  0  0  0  0  0  0  0  0  0  0  0
   33.5333  113.8306   28.6311 C   0  0  0  0  0  0  0  0  0  0  0  0
   33.0516  113.2384   27.9851 O   0  0  0  0  0  0  0  0  0  0  0  0
   34.5006  113.6721   28.8291 N   0  0  0  0  0  0  0  0  0  0  0  0
   34.9748  114.2551   29.4651 H   0  0  0  0  0  0  0  0  0  0  0  0
   32.7683  115.3825   28.5497 N   0  0  0  0  0  0  0  0  0  0  0  0
   33.0476  114.5813   29.0790 C   0  0  0  0  0  0  0  0  0  0  0  0
   32.2730  116.1482   29.0066 H   0  0  0  0  0  0  0  0  0  0  0  0
   32.9787  115.4339   27.5530 H   0  0  0  0  0  0  0  0  0  0  0  0
   32.8414  114.5309   30.0562 C   0  0  0  0  0  0  0  0  0  0  0  0
   33.4252  115.0047   30.7156 O   0  0  0  0  0  0  0  0  0  0  0  0
   32.0513  114.0067   30.3740 C   0  0  0  0  0  0  0  0  0  0  0  0
   34.1915  115.5132   30.4072 H   0  0  0  0  0  0  0  0  0  0  0  0
   34.7886  111.9751   28.6368 C   0  0  0  0  0  0  0  0  0  0  0  0
   35.0554  111.6345   29.5384 C   0  0  0  0  0  0  0  0  0  0  0  0
   34.7550  110.7296   29.8401 C   0  0  0  0  0  0  0  0  0  0  0  0
   35.4277  110.0556   30.1456 O   0  0  0  0  0  0  0  0  0  0  0  0
   33.7821  110.4988   29.8363 N   0  0  0  0  0  0  0  0  0  0  0  0
   33.1199  111.1623   29.5355 H   0  0  0  0  0  0  0  0  0  0  0  0
   33.4864  109.6079   30.1333 H   0  0  0  0  0  0  0  0  0  0  0  0
   36.2657  113.9763   25.6528 C   0  0  0  0  0  0  0  0  0  0  0  0
   35.7256  114.5736   25.0599 C   0  0  0  0  0  0  0  0  0  0  0  0
   35.7440  114.4432   24.0686 C   0  0  0  0  0  0  0  0  0  0  0  0
   36.5805  114.1265   23.6214 O   0  0  0  0  0  0  0  0  0  0  0  0
   34.9260  114.6296   23.5244 N   0  0  0  0  0  0  0  0  0  0  0  0
   34.1024  114.9414   23.9647 H   0  0  0  0  0  0  0  0  0  0  0  0
   34.9441  114.5013   22.5485 H   0  0  0  0  0  0  0  0  0  0  0  0
   42.0299  114.0059   26.8499 C   0  0  0  0  0  0  0  0  0  0  0  0
   42.8011  114.6361   26.7604 O   0  0  0  0  0  0  0  0  0  0  0  0
   43.4405  114.5210   26.0401 H   0  0  0  0  0  0  0  0  0  0  0  0
   40.8838  112.3437   30.2124 C   0  0  0  0  0  0  0  0  0  0  0  0
   39.9866  111.9295   30.0595 C   0  0  0  0  0  0  0  0  0  0  0  0
   39.6588  111.5379   29.1998 C   0  0  0  0  0  0  0  0  0  0  0  0
   38.7292  111.2005   29.3483 N   0  0  0  0  0  0  0  0  0  0  0  0
   38.4824  111.3838   30.3000 C   0  0  0  0  0  0  0  0  0  0  0  0
   39.2595  111.8343   30.7394 N   0  0  0  0  0  0  0  0  0  0  0  0
   39.3015  112.1319   31.6769 H   0  0  0  0  0  0  0  0  0  0  0  0
 95 96  1  0  0  0
 95 97  1  0  0  0
 95 98  1  0  0  0
 96 91  1  0  0  0
 96 99  1  0  0  0
 91 92  2  0  0  0
 91 93  1  0  0  0
 93 90  1  0  0  0
 93 94  1  0  0  0
 90103  1  0  0  0
 90 86  1  0  0  0
103104  1  0  0  0
104105  1  0  0  0
105106  2  0  0  0
105107  1  0  0  0
107108  1  0  0  0
107109  1  0  0  0
 86 87  2  0  0  0
 86 88  1  0  0  0
 88 85  1  0  0  0
 88 89  1  0  0  0
 85110  1  0  0  0
 85 81  1  0  0  0
110111  1  0  0  0
111112  1  0  0  0
112113  2  0  0  0
112114  1  0  0  0
114115  1  0  0  0
114116  1  0  0  0
 81 82  2  0  0  0
 81 83  1  0  0  0
 83 79  1  0  0  0
 83 84  1  0  0  0
 79 80  1  0  0  0
 79 75  1  0  0  0
 75 76  2  0  0  0
 75 77  1  0  0  0
 77 74  1  0  0  0
 77 78  1  0  0  0
 74117  1  0  0  0
 74 70  1  0  0  0
117118  1  0  0  0
118119  1  0  0  0
 70 71  2  0  0  0
 70 72  1  0  0  0
 72 69  1  0  0  0
 72 73  1  0  0  0
 69120  1  0  0  0
 69 65  1  0  0  0
120121  1  0  0  0
121125  1  0  0  0
121122  2  0  0  0
122123  1  0  0  0
123124  2  0  0  0
124125  1  0  0  0
125126  1  0  0  0
 65 66  2  0  0  0
 65 67  1  0  0  0
 67  1  1  0  0  0
 67 68  1  0  0  0
  1  2  1  0  0  0
  1 10  1  0  0  0
  2  8  2  0  0  0
  2  3  1  0  0  0
  3  4  2  0  0  0
  4  5  1  0  0  0
  5  6  1  0  0  0
  5  7  2  0  0  0
  6  9  1  0  0  0
  7  8  1  0  0  0
 10 11  2  0  0  0
 10 12  1  0  0  0
 12 14  1  0  0  0
 12 13  1  0  0  0
 14 58  1  0  0  0
 14 15  1  0  0  0
 58 59  1  0  0  0
 59 60  1  0  0  0
 60 61  1  0  0  0
 61 62  1  0  0  0
 62 63  1  0  0  0
 62 64  1  0  0  0
 15 16  2  0  0  0
 15 17  1  0  0  0
 17 19  1  0  0  0
 17 18  1  0  0  0
 19 51  1  0  0  0
 19 20  1  0  0  0
 51 52  1  0  0  0
 52 53  1  0  0  0
 53 54  2  0  0  0
 53 55  1  0  0  0
 55 56  1  0  0  0
 55 57  1  0  0  0
 20 21  2  0  0  0
 20 22  1  0  0  0
 22 24  1  0  0  0
 22 23  1  0  0  0
 24 44  1  0  0  0
 24 25  1  0  0  0
 44 45  1  0  0  0
 45 49  1  0  0  0
 45 46  2  0  0  0
 46 47  1  0  0  0
 47 48  2  0  0  0
 48 49  1  0  0  0
 49 50  1  0  0  0
 25 26  2  0  0  0
 25 27  1  0  0  0
 27 29  1  0  0  0
 27 28  1  0  0  0
 29 41  1  0  0  0
 29 30  1  0  0  0
 41 42  1  0  0  0
 42 43  1  0  0  0
 30 31  2  0  0  0
 30 32  1  0  0  0
 32 36  1  0  0  0
 32 33  1  0  0  0
 33 34  1  0  0  0
 34 35  1  0  0  0
 35 36  1  0  0  0
 36 37  1  0  0  0
 37 38  1  0  0  0
 37 39  2  0  0  0
 38 40  1  0  0  0
 99100  1  0  0  0
 99101  1  0  0  0
100102  1  0  0  0
M  END
> <minimizedAffinity>
-7.98700

$$$$



126129  0  0  0  0  0  0  0  0999 V2000
   43.5567  109.5202   31.5724 C   0  0  0  0  0  0  0  0  0  0  0  0
   43.2968  108.5864   31.8181 C   0  0  0  0  0  0  0  0  0  0  0  0
   43.4083  108.2675   32.7593 C   0  0  0  0  0  0  0  0  0  0  0  0
   43.1483  107.3336   33.0049 C   0  0  0  0  0  0  0  0  0  0  0  0
   42.7769  106.7186   32.3093 C   0  0  0  0  0  0  0  0  0  0  0  0
   42.5170  105.7848   32.5549 O   0  0  0  0  0  0  0  0  0  0  0  0
   42.6654  107.0375   31.3681 C   0  0  0  0  0  0  0  0  0  0  0  0
   42.9253  107.9713   31.1224 C   0  0  0  0  0  0  0  0  0  0  0  0
   42.6214  105.4860   33.4368 H   0  0  0  0  0  0  0  0  0  0  0  0
   44.4836  109.8464   31.7578 C   0  0  0  0  0  0  0  0  0  0  0  0
   44.7508  110.0903   32.6900 O   0  0  0  0  0  0  0  0  0  0  0  0
   45.1434  109.9285   31.0108 N   0  0  0  0  0  0  0  0  0  0  0  0
   44.8804  109.6884   30.0930 H   0  0  0  0  0  0  0  0  0  0  0  0
   46.0705  110.2547   31.1961 C   0  0  0  0  0  0  0  0  0  0  0  0
   46.2943  111.2215   31.0733 C   0  0  0  0  0  0  0  0  0  0  0  0
   46.0623  111.6836   30.2174 O   0  0  0  0  0  0  0  0  0  0  0  0
   46.7500  111.7263   31.8064 N   0  0  0  0  0  0  0  0  0  0  0  0
   46.9784  111.2713   32.6491 H   0  0  0  0  0  0  0  0  0  0  0  0
   46.9738  112.6931   31.6836 C   0  0  0  0  0  0  0  0  0  0  0  0
   47.9279  112.9775   31.5899 C   0  0  0  0  0  0  0  0  0  0  0  0
   48.5565  112.8809   32.3616 O   0  0  0  0  0  0  0  0  0  0  0  0
   48.2535  113.3585   30.7245 N   0  0  0  0  0  0  0  0  0  0  0  0
   47.6346  113.4536   29.9648 H   0  0  0  0  0  0  0  0  0  0  0  0
   49.2076  113.6429   30.6308 C   0  0  0  0  0  0  0  0  0  0  0  0
   49.4436  114.6144   30.6474 C   0  0  0  0  0  0  0  0  0  0  0  0
   49.2250  115.1955   29.8635 O   0  0  0  0  0  0  0  0  0  0  0  0
   49.8984  115.0049   31.4478 N   0  0  0  0  0  0  0  0  0  0  0  0
   50.1137  114.4328   32.2195 H   0  0  0  0  0  0  0  0  0  0  0  0
   50.1345  115.9765   31.4644 C   0  0  0  0  0  0  0  0  0  0  0  0
   51.0830  116.2629   31.3296 C   0  0  0  0  0  0  0  0  0  0  0  0
   51.3460  116.7441   30.4934 O   0  0  0  0  0  0  0  0  0  0  0  0
   51.7687  116.0681   32.0311 N   0  0  0  0  0  0  0  0  0  0  0  0
   51.6057  115.5951   32.8969 C   0  0  0  0  0  0  0  0  0  0  0  0
   52.4740  115.5469   33.3907 C   0  0  0  0  0  0  0  0  0  0  0  0
   53.1734  115.9901   32.8301 C   0  0  0  0  0  0  0  0  0  0  0  0
   52.7375  116.3122   31.9898 C   0  0  0  0  0  0  0  0  0  0  0  0
   53.1909  116.7939   31.2399 C   0  0  0  0  0  0  0  0  0  0  0  0
   53.2088  117.7937   31.2261 O   0  0  0  0  0  0  0  0  0  0  0  0
   53.6263  116.2759   30.5036 O   0  0  0  0  0  0  0  0  0  0  0  0
   52.8008  118.2791   31.9159 H   0  0  0  0  0  0  0  0  0  0  0  0
   49.4219  116.6617   31.6158 C   0  0  0  0  0  0  0  0  0  0  0  0
   48.9450  116.7015   32.4938 S   0  0  0  0  0  0  0  0  0  0  0  0
   49.2652  115.8238   33.4820 H   0  0  0  0  0  0  0  0  0  0  0  0
   49.9256  112.9556   30.5205 C   0  0  0  0  0  0  0  0  0  0  0  0
   50.1267  112.5836   29.6144 C   0  0  0  0  0  0  0  0  0  0  0  0
   49.7828  111.7208   29.2436 C   0  0  0  0  0  0  0  0  0  0  0  0
   50.1506  111.6130   28.3200 N   0  0  0  0  0  0  0  0  0  0  0  0
   50.7217  112.4091   28.1198 C   0  0  0  0  0  0  0  0  0  0  0  0
   50.7069  113.0089   28.9199 N   0  0  0  0  0  0  0  0  0  0  0  0
   51.1806  113.8675   29.0081 H   0  0  0  0  0  0  0  0  0  0  0  0
   46.2435  113.3756   31.6545 C   0  0  0  0  0  0  0  0  0  0  0  0
   45.9023  113.7794   32.5034 C   0  0  0  0  0  0  0  0  0  0  0  0
   45.0711  114.3353   32.4940 C   0  0  0  0  0  0  0  0  0  0  0  0
   45.1236  115.3094   32.2740 O   0  0  0  0  0  0  0  0  0  0  0  0
   44.1875  113.9171   32.7045 N   0  0  0  0  0  0  0  0  0  0  0  0
   44.1360  112.9580   32.9210 H   0  0  0  0  0  0  0  0  0  0  0  0
   43.3692  114.4643   32.6952 H   0  0  0  0  0  0  0  0  0  0  0  0
   46.7737  109.6139   31.5042 C   0  0  0  0  0  0  0  0  0  0  0  0
   47.0102  108.8223   30.9407 C   0  0  0  0  0  0  0  0  0  0  0  0
   47.6231  108.1183   31.2997 C   0  0  0  0  0  0  0  0  0  0  0  0
   47.5774  107.1858   30.9417 C   0  0  0  0  0  0  0  0  0  0  0  0
   48.4069  106.6299   30.8872 N   0  0  0  0  0  0  0  0  0  0  0  0
   49.2996  107.0142   31.1968 H   0  0  0  0  0  0  0  0  0  0  0  0
   48.3603  105.6787   30.5220 H   0  0  0  0  0  0  0  0  0  0  0  0
   42.4653  110.8614   31.6724 C   0  0  0  0  0  0  0  0  0  0  0  0
   42.7079  110.9872   32.6344 O   0  0  0  0  0  0  0  0  0  0  0  0
   42.8896  110.1280   31.1415 N   0  0  0  0  0  0  0  0  0  0  0  0
   42.6508  110.0041   30.1945 H   0  0  0  0  0  0  0  0  0  0  0  0
   41.7982  111.4691   31.2414 C   0  0  0  0  0  0  0  0  0  0  0  0
   42.1055  112.7467   30.1130 C   0  0  0  0  0  0  0  0  0  0  0  0
   42.1324  113.4048   30.8654 O   0  0  0  0  0  0  0  0  0  0  0  0
   41.9384  111.7789   30.3010 N   0  0  0  0  0  0  0  0  0  0  0  0
   41.9119  111.1309   29.5603 H   0  0  0  0  0  0  0  0  0  0  0  0
   42.2457  113.0565   29.1726 C   0  0  0  0  0  0  0  0  0  0  0  0
   40.9935  113.2994   28.0009 C   0  0  0  0  0  0  0  0  0  0  0  0
   41.0901  112.3503   27.7010 O   0  0  0  0  0  0  0  0  0  0  0  0
   41.5713  113.6524   28.7367 N   0  0  0  0  0  0  0  0  0  0  0  0
   41.4763  114.5868   29.0320 H   0  0  0  0  0  0  0  0  0  0  0  0
   40.3191  113.8953   27.5650 C   0  0  0  0  0  0  0  0  0  0  0  0
   40.6183  114.7123   27.0721 C   0  0  0  0  0  0  0  0  0  0  0  0
   38.7544  113.8113   26.8271 C   0  0  0  0  0  0  0  0  0  0  0  0
   39.1369  114.1692   25.9753 O   0  0  0  0  0  0  0  0  0  0  0  0
   39.3455  113.6743   27.6219 N   0  0  0  0  0  0  0  0  0  0  0  0
   38.9690  113.3219   28.4605 H   0  0  0  0  0  0  0  0  0  0  0  0
   37.7807  113.5902   26.8840 C   0  0  0  0  0  0  0  0  0  0  0  0
   37.1313  112.0010   27.1135 C   0  0  0  0  0  0  0  0  0  0  0  0
   37.1071  111.8679   26.1228 O   0  0  0  0  0  0  0  0  0  0  0  0
   37.4682  112.8622   27.4942 N   0  0  0  0  0  0  0  0  0  0  0  0
   37.4921  112.9933   28.4696 H   0  0  0  0  0  0  0  0  0  0  0  0
   36.8188  111.2730   27.7237 C   0  0  0  0  0  0  0  0  0  0  0  0
   37.7883  109.8396   27.6497 C   0  0  0  0  0  0  0  0  0  0  0  0
   38.5353  110.3213   28.1079 O   0  0  0  0  0  0  0  0  0  0  0  0
   36.9300  110.3155   27.4576 N   0  0  0  0  0  0  0  0  0  0  0  0
   36.1945  109.8413   27.0066 H   0  0  0  0  0  0  0  0  0  0  0  0
   37.5536  108.5651   26.5005 N   0  0  0  0  0  0  0  0  0  0  0  0
   37.8995  108.8820   27.3837 C   0  0  0  0  0  0  0  0  0  0  0  0
   37.6670  107.5885   26.2291 H   0  0  0  0  0  0  0  0  0  0  0  0
   37.0875  109.2186   25.8711 H   0  0  0  0  0  0  0  0  0  0  0  0
   38.3564  108.2415   28.0007 C   0  0  0  0  0  0  0  0  0  0  0  0
   37.9039  107.9499   28.8435 O   0  0  0  0  0  0  0  0  0  0  0  0
   39.2660  107.8924   27.7751 C   0  0  0  0  0  0  0  0  0  0  0  0
   37.0216  108.2885   29.0623 H   0  0  0  0  0  0  0  0  0  0  0  0
   36.3950  111.5025   28.5999 C   0  0  0  0  0  0  0  0  0  0  0  0
   35.4408  111.2585   28.7728 C   0  0  0  0  0  0  0  0  0  0  0  0
   34.9847  111.5808   29.6024 C   0  0  0  0  0  0  0  0  0  0  0  0
   35.1661  111.1340   30.4785 O   0  0  0  0  0  0  0  0  0  0  0  0
   34.3472  112.3498   29.5559 N   0  0  0  0  0  0  0  0  0  0  0  0
   34.1686  112.7896   28.6934 H   0  0  0  0  0  0  0  0  0  0  0  0
   33.8982  112.6671   30.3726 H   0  0  0  0  0  0  0  0  0  0  0  0
   37.1197  114.0972   26.3308 C   0  0  0  0  0  0  0  0  0  0  0  0
   36.6411  114.8841   26.7202 C   0  0  0  0  0  0  0  0  0  0  0  0
   35.7931  115.2103   26.3025 C   0  0  0  0  0  0  0  0  0  0  0  0
   34.9144  115.0183   26.7396 O   0  0  0  0  0  0  0  0  0  0  0  0
   35.8237  115.7285   25.4478 N   0  0  0  0  0  0  0  0  0  0  0  0
   36.6888  115.9176   25.0175 H   0  0  0  0  0  0  0  0  0  0  0  0
   34.9888  116.0496   25.0366 H   0  0  0  0  0  0  0  0  0  0  0  0
   43.0603  112.7702   28.6681 C   0  0  0  0  0  0  0  0  0  0  0  0
   43.9494  113.1742   28.8834 O   0  0  0  0  0  0  0  0  0  0  0  0
   44.7395  112.8965   28.3940 H   0  0  0  0  0  0  0  0  0  0  0  0
   40.9909  111.7671   31.7510 C   0  0  0  0  0  0  0  0  0  0  0  0
   40.1257  111.2763   31.6486 C   0  0  0  0  0  0  0  0  0  0  0  0
   39.8142  110.5106   32.2112 C   0  0  0  0  0  0  0  0  0  0  0  0
   38.9160  110.2260   31.8759 N   0  0  0  0  0  0  0  0  0  0  0  0
   38.6725  110.8161   31.1060 C   0  0  0  0  0  0  0  0  0  0  0  0
   39.4202  111.4651   30.9656 N   0  0  0  0  0  0  0  0  0  0  0  0
   39.4554  112.1668   30.2759 H   0  0  0  0  0  0  0  0  0  0  0  0
 95 96  1  0  0  0
 95 97  1  0  0  0
 95 98  1  0  0  0
 96 91  1  0  0  0
 96 99  1  0  0  0
 91 92  2  0  0  0
 91 93  1  0  0  0
 93 90  1  0  0  0
 93 94  1  0  0  0
 90103  1  0  0  0
 90 86  1  0  0  0
103104  1  0  0  0
104105  1  0  0  0
105106  2  0  0  0
105107  1  0  0  0
107108  1  0  0  0
107109  1  0  0  0
 86 87  2  0  0  0
 86 88  1  0  0  0
 88 85  1  0  0  0
 88 89  1  0  0  0
 85110  1  0  0  0
 85 81  1  0  0  0
110111  1  0  0  0
111112  1  0  0  0
112113  2  0  0  0
112114  1  0  0  0
114115  1  0  0  0
114116  1  0  0  0
 81 82  2  0  0  0
 81 83  1  0  0  0
 83 79  1  0  0  0
 83 84  1  0  0  0
 79 80  1  0  0  0
 79 75  1  0  0  0
 75 76  2  0  0  0
 75 77  1  0  0  0
 77 74  1  0  0  0
 77 78  1  0  0  0
 74117  1  0  0  0
 74 70  1  0  0  0
117118  1  0  0  0
118119  1  0  0  0
 70 71  2  0  0  0
 70 72  1  0  0  0
 72 69  1  0  0  0
 72 73  1  0  0  0
 69120  1  0  0  0
 69 65  1  0  0  0
120121  1  0  0  0
121125  1  0  0  0
121122  2  0  0  0
122123  1  0  0  0
123124  2  0  0  0
124125  1  0  0  0
125126  1  0  0  0
 65 66  2  0  0  0
 65 67  1  0  0  0
 67  1  1  0  0  0
 67 68  1  0  0  0
  1  2  1  0  0  0
  1 10  1  0  0  0
  2  8  2  0  0  0
  2  3  1  0  0  0
  3  4  2  0  0  0
  4  5  1  0  0  0
  5  6  1  0  0  0
  5  7  2  0  0  0
  6  9  1  0  0  0
  7  8  1  0  0  0
 10 11  2  0  0  0
 10 12  1  0  0  0
 12 14  1  0  0  0
 12 13  1  0  0  0
 14 58  1  0  0  0
 14 15  1  0  0  0
 58 59  1  0  0  0
 59 60  1  0  0  0
 60 61  1  0  0  0
 61 62  1  0  0  0
 62 63  1  0  0  0
 62 64  1  0  0  0
 15 16  2  0  0  0
 15 17  1  0  0  0
 17 19  1  0  0  0
 17 18  1  0  0  0
 19 51  1  0  0  0
 19 20  1  0  0  0
 51 52  1  0  0  0
 52 53  1  0  0  0
 53 54  2  0  0  0
 53 55  1  0  0  0
 55 56  1  0  0  0
 55 57  1  0  0  0
 20 21  2  0  0  0
 20 22  1  0  0  0
 22 24  1  0  0  0
 22 23  1  0  0  0
 24 44  1  0  0  0
 24 25  1  0  0  0
 44 45  1  0  0  0
 45 49  1  0  0  0
 45 46  2  0  0  0
 46 47  1  0  0  0
 47 48  2  0  0  0
 48 49  1  0  0  0
 49 50  1  0  0  0
 25 26  2  0  0  0
 25 27  1  0  0  0
 27 29  1  0  0  0
 27 28  1  0  0  0
 29 41  1  0  0  0
 29 30  1  0  0  0
 41 42  1  0  0  0
 42 43  1  0  0  0
 30 31  2  0  0  0
 30 32  1  0  0  0
 32 36  1  0  0  0
 32 33  1  0  0  0
 33 34  1  0  0  0
 34 35  1  0  0  0
 35 36  1  0  0  0
 36 37  1  0  0  0
 37 38  1  0  0  0
 37 39  2  0  0  0
 38 40  1  0  0  0
 99100  1  0  0  0
 99101  1  0  0  0
100102  1  0  0  0
M  END
> <minimizedAffinity>
-7.97421

$$$$
