


126129  0  0  0  0  0  0  0  0999 V2000
   46.9691  120.1639    2.8589 C   0  0  0  0  0  0  0  0  0  0  0  0
   46.5641  121.0163    3.1897 C   0  0  0  0  0  0  0  0  0  0  0  0
   45.6078  121.2272    2.9871 C   0  0  0  0  0  0  0  0  0  0  0  0
   45.2028  122.0796    3.3179 C   0  0  0  0  0  0  0  0  0  0  0  0
   45.7541  122.7211    3.8512 C   0  0  0  0  0  0  0  0  0  0  0  0
   45.3492  123.5735    4.1820 O   0  0  0  0  0  0  0  0  0  0  0  0
   46.7104  122.5103    4.0539 C   0  0  0  0  0  0  0  0  0  0  0  0
   47.1154  121.6579    3.7231 C   0  0  0  0  0  0  0  0  0  0  0  0
   44.4531  123.7711    3.9922 H   0  0  0  0  0  0  0  0  0  0  0  0
   47.8339  119.8396    3.2421 C   0  0  0  0  0  0  0  0  0  0  0  0
   48.6614  120.3930    3.1479 O   0  0  0  0  0  0  0  0  0  0  0  0
   47.8712  118.9617    3.7196 N   0  0  0  0  0  0  0  0  0  0  0  0
   47.0565  118.4168    3.8123 H   0  0  0  0  0  0  0  0  0  0  0  0
   48.7360  118.6373    4.1028 C   0  0  0  0  0  0  0  0  0  0  0  0
   48.9219  118.7452    5.0794 C   0  0  0  0  0  0  0  0  0  0  0  0
   48.3375  118.2921    5.7526 O   0  0  0  0  0  0  0  0  0  0  0  0
   49.6921  119.3062    5.3828 N   0  0  0  0  0  0  0  0  0  0  0  0
   50.2673  119.7522    4.7200 H   0  0  0  0  0  0  0  0  0  0  0  0
   49.8780  119.4141    6.3594 C   0  0  0  0  0  0  0  0  0  0  0  0
   49.4101  120.1271    6.8816 C   0  0  0  0  0  0  0  0  0  0  0  0
   49.2056  119.9848    7.8501 O   0  0  0  0  0  0  0  0  0  0  0  0
   49.1466  120.9824    6.4354 N   0  0  0  0  0  0  0  0  0  0  0  0
   49.3479  121.1224    5.4819 H   0  0  0  0  0  0  0  0  0  0  0  0
   48.6788  121.6954    6.9576 C   0  0  0  0  0  0  0  0  0  0  0  0
   49.0771  122.6103    7.0227 C   0  0  0  0  0  0  0  0  0  0  0  0
   49.6474  122.8525    7.8077 O   0  0  0  0  0  0  0  0  0  0  0  0
   48.9053  123.2829    6.3030 N   0  0  0  0  0  0  0  0  0  0  0  0
   48.3439  123.0443    5.5303 H   0  0  0  0  0  0  0  0  0  0  0  0
   49.3037  124.1978    6.3682 C   0  0  0  0  0  0  0  0  0  0  0  0
   48.8793  124.9635    5.8848 C   0  0  0  0  0  0  0  0  0  0  0  0
   49.3621  125.4075    5.1300 O   0  0  0  0  0  0  0  0  0  0  0  0
   47.9722  125.2852    6.1563 N   0  0  0  0  0  0  0  0  0  0  0  0
   47.4118  124.9092    6.8943 C   0  0  0  0  0  0  0  0  0  0  0  0
   46.5595  125.4310    6.9315 C   0  0  0  0  0  0  0  0  0  0  0  0
   46.5933  126.1294    6.2166 C   0  0  0  0  0  0  0  0  0  0  0  0
   47.4664  126.0393    5.7376 C   0  0  0  0  0  0  0  0  0  0  0  0
   47.7787  126.6041    4.9738 C   0  0  0  0  0  0  0  0  0  0  0  0
   47.5678  126.3352    4.0340 O   0  0  0  0  0  0  0  0  0  0  0  0
   48.3021  127.4379    5.1498 O   0  0  0  0  0  0  0  0  0  0  0  0
   47.0775  125.5540    3.8691 H   0  0  0  0  0  0  0  0  0  0  0  0
   50.1264  124.3470    6.9168 C   0  0  0  0  0  0  0  0  0  0  0  0
   51.0152  124.4441    6.4689 S   0  0  0  0  0  0  0  0  0  0  0  0
   51.1051  124.3733    5.1137 H   0  0  0  0  0  0  0  0  0  0  0  0
   47.8125  121.4935    7.4146 C   0  0  0  0  0  0  0  0  0  0  0  0
   47.6482  121.8250    8.3436 C   0  0  0  0  0  0  0  0  0  0  0  0
   48.2710  121.7301    9.1203 C   0  0  0  0  0  0  0  0  0  0  0  0
   47.8400  122.1560    9.9158 N   0  0  0  0  0  0  0  0  0  0  0  0
   46.9507  122.5141    9.6308 C   0  0  0  0  0  0  0  0  0  0  0  0
   46.8323  122.3094    8.6591 N   0  0  0  0  0  0  0  0  0  0  0  0
   46.0498  122.5439    8.1096 H   0  0  0  0  0  0  0  0  0  0  0  0
   50.5317  118.8090    6.8139 C   0  0  0  0  0  0  0  0  0  0  0  0
   51.4247  118.6357    6.3986 C   0  0  0  0  0  0  0  0  0  0  0  0
   51.8333  117.7246    6.4535 C   0  0  0  0  0  0  0  0  0  0  0  0
   51.3946  117.0120    7.0011 O   0  0  0  0  0  0  0  0  0  0  0  0
   52.6805  117.5261    5.9607 N   0  0  0  0  0  0  0  0  0  0  0  0
   53.1123  118.2276    5.4216 H   0  0  0  0  0  0  0  0  0  0  0  0
   53.0828  116.6291    6.0147 H   0  0  0  0  0  0  0  0  0  0  0  0
   49.4149  118.2049    3.5094 C   0  0  0  0  0  0  0  0  0  0  0  0
   49.4131  117.2123    3.3879 C   0  0  0  0  0  0  0  0  0  0  0  0
   50.2719  116.7017    3.4310 C   0  0  0  0  0  0  0  0  0  0  0  0
   50.2676  115.7376    3.6965 C   0  0  0  0  0  0  0  0  0  0  0  0
   51.0535  115.3476    4.1763 N   0  0  0  0  0  0  0  0  0  0  0  0
   51.8596  115.9333    4.3949 H   0  0  0  0  0  0  0  0  0  0  0  0
   51.0492  114.3643    4.4471 H   0  0  0  0  0  0  0  0  0  0  0  0
   46.7299  119.7974    1.1831 C   0  0  0  0  0  0  0  0  0  0  0  0
   47.4105  120.4869    0.9351 O   0  0  0  0  0  0  0  0  0  0  0  0
   46.5092  119.6359    2.1449 N   0  0  0  0  0  0  0  0  0  0  0  0
   45.8393  118.9571    2.3890 H   0  0  0  0  0  0  0  0  0  0  0  0
   46.2701  119.2694    0.4691 C   0  0  0  0  0  0  0  0  0  0  0  0
   44.8198  119.4424   -0.4618 C   0  0  0  0  0  0  0  0  0  0  0  0
   45.3662  119.6186   -1.2805 O   0  0  0  0  0  0  0  0  0  0  0  0
   45.2717  119.2677    0.4130 N   0  0  0  0  0  0  0  0  0  0  0  0
   44.7337  119.0942    1.2191 H   0  0  0  0  0  0  0  0  0  0  0  0
   43.8214  119.4408   -0.5179 C   0  0  0  0  0  0  0  0  0  0  0  0
   42.6978  118.2010   -0.9657 C   0  0  0  0  0  0  0  0  0  0  0  0
   42.5988  118.6172   -1.8695 O   0  0  0  0  0  0  0  0  0  0  0  0
   43.3091  118.6127   -0.2899 N   0  0  0  0  0  0  0  0  0  0  0  0
   43.4066  118.2030    0.6000 H   0  0  0  0  0  0  0  0  0  0  0  0
   42.1856  117.3730   -0.7377 C   0  0  0  0  0  0  0  0  0  0  0  0
   41.7797  117.2702    0.1704 C   0  0  0  0  0  0  0  0  0  0  0  0
   41.2397  116.1048   -1.4427 C   0  0  0  0  0  0  0  0  0  0  0  0
   40.5067  116.2872   -0.7874 O   0  0  0  0  0  0  0  0  0  0  0  0
   42.0792  116.6476   -1.4178 N   0  0  0  0  0  0  0  0  0  0  0  0
   42.8009  116.4680   -2.0629 H   0  0  0  0  0  0  0  0  0  0  0  0
   41.1333  115.3794   -2.1228 C   0  0  0  0  0  0  0  0  0  0  0  0
   41.3352  115.5782   -3.8315 C   0  0  0  0  0  0  0  0  0  0  0  0
   40.3659  115.8077   -3.9194 O   0  0  0  0  0  0  0  0  0  0  0  0
   41.7189  115.3641   -2.9333 N   0  0  0  0  0  0  0  0  0  0  0  0
   42.6732  115.1382   -2.8468 H   0  0  0  0  0  0  0  0  0  0  0  0
   41.9208  115.5629   -4.6420 C   0  0  0  0  0  0  0  0  0  0  0  0
   43.2979  116.6039   -4.7828 C   0  0  0  0  0  0  0  0  0  0  0  0
   42.7065  117.3425   -5.1063 O   0  0  0  0  0  0  0  0  0  0  0  0
   42.9051  115.7141   -4.5506 N   0  0  0  0  0  0  0  0  0  0  0  0
   43.4873  114.9869   -4.2320 H   0  0  0  0  0  0  0  0  0  0  0  0
   44.9250  116.1913   -5.2100 N   0  0  0  0  0  0  0  0  0  0  0  0
   44.2823  116.7551   -4.6913 C   0  0  0  0  0  0  0  0  0  0  0  0
   45.9289  116.3454   -5.1168 H   0  0  0  0  0  0  0  0  0  0  0  0
   44.5765  115.4619   -5.8322 H   0  0  0  0  0  0  0  0  0  0  0  0
   44.6238  117.4701   -4.0813 C   0  0  0  0  0  0  0  0  0  0  0  0
   44.6899  117.2991   -3.0983 O   0  0  0  0  0  0  0  0  0  0  0  0
   44.8993  118.3560   -4.4544 C   0  0  0  0  0  0  0  0  0  0  0  0
   44.4226  116.4397   -2.7364 H   0  0  0  0  0  0  0  0  0  0  0  0
   41.5222  115.3964   -5.5438 C   0  0  0  0  0  0  0  0  0  0  0  0
   41.4816  114.4662   -5.9085 C   0  0  0  0  0  0  0  0  0  0  0  0
   41.4248  114.3182   -6.8959 C   0  0  0  0  0  0  0  0  0  0  0  0
   40.5874  114.5530   -7.3894 O   0  0  0  0  0  0  0  0  0  0  0  0
   42.2056  113.9354   -7.3898 N   0  0  0  0  0  0  0  0  0  0  0  0
   43.0300  113.7043   -6.9040 H   0  0  0  0  0  0  0  0  0  0  0  0
   42.1497  113.7898   -8.3619 H   0  0  0  0  0  0  0  0  0  0  0  0
   40.4413  114.6694   -1.9925 C   0  0  0  0  0  0  0  0  0  0  0  0
   40.6783  113.8211   -1.5190 C   0  0  0  0  0  0  0  0  0  0  0  0
   40.1899  112.9754   -1.7339 C   0  0  0  0  0  0  0  0  0  0  0  0
   39.5846  112.9357   -2.5288 O   0  0  0  0  0  0  0  0  0  0  0  0
   40.3069  112.1692   -1.1538 N   0  0  0  0  0  0  0  0  0  0  0  0
   40.9029  112.2083   -0.3711 H   0  0  0  0  0  0  0  0  0  0  0  0
   39.8261  111.3365   -1.3653 H   0  0  0  0  0  0  0  0  0  0  0  0
   43.3352  120.2671   -0.8020 C   0  0  0  0  0  0  0  0  0  0  0  0
   43.3092  121.0643   -0.1987 O   0  0  0  0  0  0  0  0  0  0  0  0
   42.8376  121.8659   -0.4743 H   0  0  0  0  0  0  0  0  0  0  0  0
   46.8088  118.7430   -0.1888 C   0  0  0  0  0  0  0  0  0  0  0  0
   46.8413  117.7456   -0.1242 C   0  0  0  0  0  0  0  0  0  0  0  0
   47.1914  117.2178    0.6496 C   0  0  0  0  0  0  0  0  0  0  0  0
   47.0959  116.2468    0.4300 N   0  0  0  0  0  0  0  0  0  0  0  0
   46.6867  116.1747   -0.4797 C   0  0  0  0  0  0  0  0  0  0  0  0
   46.5294  117.1009   -0.8221 N   0  0  0  0  0  0  0  0  0  0  0  0
   46.1364  117.3368   -1.6935 H   0  0  0  0  0  0  0  0  0  0  0  0
 95 96  1  0  0  0
 95 97  1  0  0  0
 95 98  1  0  0  0
 96 91  1  0  0  0
 96 99  1  0  0  0
 91 92  2  0  0  0
 91 93  1  0  0  0
 93 90  1  0  0  0
 93 94  1  0  0  0
 90103  1  0  0  0
 90 86  1  0  0  0
103104  1  0  0  0
104105  1  0  0  0
105106  2  0  0  0
105107  1  0  0  0
107108  1  0  0  0
107109  1  0  0  0
 86 87  2  0  0  0
 86 88  1  0  0  0
 88 85  1  0  0  0
 88 89  1  0  0  0
 85110  1  0  0  0
 85 81  1  0  0  0
110111  1  0  0  0
111112  1  0  0  0
112113  2  0  0  0
112114  1  0  0  0
114115  1  0  0  0
114116  1  0  0  0
 81 82  2  0  0  0
 81 83  1  0  0  0
 83 79  1  0  0  0
 83 84  1  0  0  0
 79 80  1  0  0  0
 79 75  1  0  0  0
 75 76  2  0  0  0
 75 77  1  0  0  0
 77 74  1  0  0  0
 77 78  1  0  0  0
 74117  1  0  0  0
 74 70  1  0  0  0
117118  1  0  0  0
118119  1  0  0  0
 70 71  2  0  0  0
 70 72  1  0  0  0
 72 69  1  0  0  0
 72 73  1  0  0  0
 69120  1  0  0  0
 69 65  1  0  0  0
120121  1  0  0  0
121125  1  0  0  0
121122  2  0  0  0
122123  1  0  0  0
123124  2  0  0  0
124125  1  0  0  0
125126  1  0  0  0
 65 66  2  0  0  0
 65 67  1  0  0  0
 67  1  1  0  0  0
 67 68  1  0  0  0
  1  2  1  0  0  0
  1 10  1  0  0  0
  2  8  2  0  0  0
  2  3  1  0  0  0
  3  4  2  0  0  0
  4  5  1  0  0  0
  5  6  1  0  0  0
  5  7  2  0  0  0
  6  9  1  0  0  0
  7  8  1  0  0  0
 10 11  2  0  0  0
 10 12  1  0  0  0
 12 14  1  0  0  0
 12 13  1  0  0  0
 14 58  1  0  0  0
 14 15  1  0  0  0
 58 59  1  0  0  0
 59 60  1  0  0  0
 60 61  1  0  0  0
 61 62  1  0  0  0
 62 63  1  0  0  0
 62 64  1  0  0  0
 15 16  2  0  0  0
 15 17  1  0  0  0
 17 19  1  0  0  0
 17 18  1  0  0  0
 19 51  1  0  0  0
 19 20  1  0  0  0
 51 52  1  0  0  0
 52 53  1  0  0  0
 53 54  2  0  0  0
 53 55  1  0  0  0
 55 56  1  0  0  0
 55 57  1  0  0  0
 20 21  2  0  0  0
 20 22  1  0  0  0
 22 24  1  0  0  0
 22 23  1  0  0  0
 24 44  1  0  0  0
 24 25  1  0  0  0
 44 45  1  0  0  0
 45 49  1  0  0  0
 45 46  2  0  0  0
 46 47  1  0  0  0
 47 48  2  0  0  0
 48 49  1  0  0  0
 49 50  1  0  0  0
 25 26  2  0  0  0
 25 27  1  0  0  0
 27 29  1  0  0  0
 27 28  1  0  0  0
 29 41  1  0  0  0
 29 30  1  0  0  0
 41 42  1  0  0  0
 42 43  1  0  0  0
 30 31  2  0  0  0
 30 32  1  0  0  0
 32 36  1  0  0  0
 32 33  1  0  0  0
 33 34  1  0  0  0
 34 35  1  0  0  0
 35 36  1  0  0  0
 36 37  1  0  0  0
 37 38  1  0  0  0
 37 39  2  0  0  0
 38 40  1  0  0  0
 99100  1  0  0  0
 99101  1  0  0  0
100102  1  0  0  0
M  END
> <minimizedAffinity>
-10.57347

$$$$



126129  0  0  0  0  0  0  0  0999 V2000
   47.1061  120.2749    3.0125 C   0  0  0  0  0  0  0  0  0  0  0  0
   46.7045  121.1200    3.3652 C   0  0  0  0  0  0  0  0  0  0  0  0
   47.1622  121.6233    4.0981 C   0  0  0  0  0  0  0  0  0  0  0  0
   46.7605  122.4685    4.4508 C   0  0  0  0  0  0  0  0  0  0  0  0
   45.9011  122.8103    4.0706 C   0  0  0  0  0  0  0  0  0  0  0  0
   45.4994  123.6554    4.4233 O   0  0  0  0  0  0  0  0  0  0  0  0
   45.4433  122.3070    3.3377 C   0  0  0  0  0  0  0  0  0  0  0  0
   45.8450  121.4619    2.9850 C   0  0  0  0  0  0  0  0  0  0  0  0
   45.9283  124.1270    5.1100 H   0  0  0  0  0  0  0  0  0  0  0  0
   47.9648  119.9323    3.3937 C   0  0  0  0  0  0  0  0  0  0  0  0
   48.8223  120.4103    3.2035 O   0  0  0  0  0  0  0  0  0  0  0  0
   47.9659  119.1117    3.9652 N   0  0  0  0  0  0  0  0  0  0  0  0
   47.1217  118.6411    4.1525 H   0  0  0  0  0  0  0  0  0  0  0  0
   48.8246  118.7691    4.3465 C   0  0  0  0  0  0  0  0  0  0  0  0
   48.9666  118.7669    5.3363 C   0  0  0  0  0  0  0  0  0  0  0  0
   48.4849  118.1037    5.9091 O   0  0  0  0  0  0  0  0  0  0  0  0
   49.5903  119.4281    5.7534 N   0  0  0  0  0  0  0  0  0  0  0  0
   50.0644  120.0810    5.1895 H   0  0  0  0  0  0  0  0  0  0  0  0
   49.7322  119.4259    6.7433 C   0  0  0  0  0  0  0  0  0  0  0  0
   49.2662  120.0997    7.3166 C   0  0  0  0  0  0  0  0  0  0  0  0
   48.8333  119.8147    8.1718 O   0  0  0  0  0  0  0  0  0  0  0  0
   49.2330  121.0587    7.0349 N   0  0  0  0  0  0  0  0  0  0  0  0
   49.6592  121.3393    6.1929 H   0  0  0  0  0  0  0  0  0  0  0  0
   48.7670  121.7325    7.6082 C   0  0  0  0  0  0  0  0  0  0  0  0
   49.0623  122.6878    7.5975 C   0  0  0  0  0  0  0  0  0  0  0  0
   49.3702  123.1255    8.4423 O   0  0  0  0  0  0  0  0  0  0  0  0
   49.0496  123.2055    6.7420 N   0  0  0  0  0  0  0  0  0  0  0  0
   48.7464  122.7746    5.9104 H   0  0  0  0  0  0  0  0  0  0  0  0
   49.3448  124.1609    6.7313 C   0  0  0  0  0  0  0  0  0  0  0  0
   48.6797  124.8879    6.5611 C   0  0  0  0  0  0  0  0  0  0  0  0
   48.1845  125.3015    7.3252 O   0  0  0  0  0  0  0  0  0  0  0  0
   48.5097  125.2014    5.6268 N   0  0  0  0  0  0  0  0  0  0  0  0
   48.9518  124.8529    4.8003 C   0  0  0  0  0  0  0  0  0  0  0  0
   48.5831  125.3545    4.0178 C   0  0  0  0  0  0  0  0  0  0  0  0
   47.9132  126.0131    4.3606 C   0  0  0  0  0  0  0  0  0  0  0  0
   47.8678  125.9184    5.3551 C   0  0  0  0  0  0  0  0  0  0  0  0
   47.2832  126.4478    5.9698 C   0  0  0  0  0  0  0  0  0  0  0  0
   47.5172  127.3948    6.1901 O   0  0  0  0  0  0  0  0  0  0  0  0
   46.4646  126.0303    6.3643 O   0  0  0  0  0  0  0  0  0  0  0  0
   48.2842  127.7860    5.8205 H   0  0  0  0  0  0  0  0  0  0  0  0
   50.3053  124.3892    6.8908 C   0  0  0  0  0  0  0  0  0  0  0  0
   50.9958  124.1521    6.2074 S   0  0  0  0  0  0  0  0  0  0  0  0
   50.6286  123.5191    5.0611 H   0  0  0  0  0  0  0  0  0  0  0  0
   48.0057  121.4510    8.1923 C   0  0  0  0  0  0  0  0  0  0  0  0
   47.1850  122.0190    8.2524 C   0  0  0  0  0  0  0  0  0  0  0  0
   46.8500  122.4831    9.0725 C   0  0  0  0  0  0  0  0  0  0  0  0
   46.0131  122.9736    8.8299 N   0  0  0  0  0  0  0  0  0  0  0  0
   45.8307  122.8128    7.8599 C   0  0  0  0  0  0  0  0  0  0  0  0
   46.5551  122.2228    7.5030 N   0  0  0  0  0  0  0  0  0  0  0  0
   46.6340  121.8995    6.5765 H   0  0  0  0  0  0  0  0  0  0  0  0
   50.3402  118.7500    7.1597 C   0  0  0  0  0  0  0  0  0  0  0  0
   51.2573  118.6060    6.7879 C   0  0  0  0  0  0  0  0  0  0  0  0
   51.7582  117.7678    7.0032 C   0  0  0  0  0  0  0  0  0  0  0  0
   51.5722  117.2791    7.8557 O   0  0  0  0  0  0  0  0  0  0  0  0
   52.4452  117.4182    6.3661 N   0  0  0  0  0  0  0  0  0  0  0  0
   52.6282  117.8993    5.5269 H   0  0  0  0  0  0  0  0  0  0  0  0
   52.9384  116.5929    6.5781 H   0  0  0  0  0  0  0  0  0  0  0  0
   49.5413  118.4286    3.7378 C   0  0  0  0  0  0  0  0  0  0  0  0
   49.5575  117.4638    3.4752 C   0  0  0  0  0  0  0  0  0  0  0  0
   50.3975  116.9313    3.5796 C   0  0  0  0  0  0  0  0  0  0  0  0
   50.3476  115.9518    3.7747 C   0  0  0  0  0  0  0  0  0  0  0  0
   51.1426  115.4756    4.1504 N   0  0  0  0  0  0  0  0  0  0  0  0
   52.0045  115.9891    4.3347 H   0  0  0  0  0  0  0  0  0  0  0  0
   51.0917  114.4766    4.3494 H   0  0  0  0  0  0  0  0  0  0  0  0
   46.9854  119.8430    1.3395 C   0  0  0  0  0  0  0  0  0  0  0  0
   47.7788  120.4163    1.1343 O   0  0  0  0  0  0  0  0  0  0  0  0
   46.6491  119.7723    2.2786 N   0  0  0  0  0  0  0  0  0  0  0  0
   45.8682  119.2080    2.4807 H   0  0  0  0  0  0  0  0  0  0  0  0
   46.5285  119.3404    0.6056 C   0  0  0  0  0  0  0  0  0  0  0  0
   45.1697  119.6760   -0.4147 C   0  0  0  0  0  0  0  0  0  0  0  0
   45.7875  119.8377   -1.1843 O   0  0  0  0  0  0  0  0  0  0  0  0
   45.5402  119.4274    0.4802 N   0  0  0  0  0  0  0  0  0  0  0  0
   44.9320  119.2682    1.2378 H   0  0  0  0  0  0  0  0  0  0  0  0
   44.1814  119.7629   -0.5402 C   0  0  0  0  0  0  0  0  0  0  0  0
   43.1442  118.5178   -1.1517 C   0  0  0  0  0  0  0  0  0  0  0  0
   43.0028  118.1788   -0.2216 O   0  0  0  0  0  0  0  0  0  0  0  0
   43.7335  119.3098   -1.3110 N   0  0  0  0  0  0  0  0  0  0  0  0
   43.8727  119.6436   -2.2266 H   0  0  0  0  0  0  0  0  0  0  0  0
   42.6962  118.0648   -1.9224 C   0  0  0  0  0  0  0  0  0  0  0  0
   42.6329  118.5278   -2.8065 C   0  0  0  0  0  0  0  0  0  0  0  0
   41.5404  116.8568   -2.3747 C   0  0  0  0  0  0  0  0  0  0  0  0
   41.1536  117.4810   -3.0535 O   0  0  0  0  0  0  0  0  0  0  0  0
   42.3117  117.1487   -1.8092 N   0  0  0  0  0  0  0  0  0  0  0  0
   42.6925  116.5341   -1.1409 H   0  0  0  0  0  0  0  0  0  0  0  0
   41.1557  115.9406   -2.2615 C   0  0  0  0  0  0  0  0  0  0  0  0
   41.1066  114.9962   -3.7126 C   0  0  0  0  0  0  0  0  0  0  0  0
   42.1002  114.8893   -3.6766 O   0  0  0  0  0  0  0  0  0  0  0  0
   40.6344  115.5219   -3.0050 N   0  0  0  0  0  0  0  0  0  0  0  0
   39.6562  115.6271   -3.0404 H   0  0  0  0  0  0  0  0  0  0  0  0
   40.5853  114.5774   -4.4561 C   0  0  0  0  0  0  0  0  0  0  0  0
   41.3327  114.6623   -6.0163 C   0  0  0  0  0  0  0  0  0  0  0  0
   41.1237  115.6390   -6.0633 O   0  0  0  0  0  0  0  0  0  0  0  0
   41.0635  114.1315   -5.2127 N   0  0  0  0  0  0  0  0  0  0  0  0
   41.2692  113.1698   -5.1663 H   0  0  0  0  0  0  0  0  0  0  0  0
   42.8062  114.2820   -6.8434 N   0  0  0  0  0  0  0  0  0  0  0  0
   41.8109  114.2162   -6.7729 C   0  0  0  0  0  0  0  0  0  0  0  0
   43.2940  113.8271   -7.6151 H   0  0  0  0  0  0  0  0  0  0  0  0
   43.3337  114.8041   -6.1437 H   0  0  0  0  0  0  0  0  0  0  0  0
   41.2938  113.7044   -7.4589 C   0  0  0  0  0  0  0  0  0  0  0  0
   40.5545  114.1505   -7.9633 O   0  0  0  0  0  0  0  0  0  0  0  0
   41.5159  112.7464   -7.6404 C   0  0  0  0  0  0  0  0  0  0  0  0
   40.3391  115.0797   -7.7872 H   0  0  0  0  0  0  0  0  0  0  0  0
   39.5858  114.6047   -4.4430 C   0  0  0  0  0  0  0  0  0  0  0  0
   39.0632  113.7543   -4.3817 C   0  0  0  0  0  0  0  0  0  0  0  0
   38.0984  113.7402   -4.6444 C   0  0  0  0  0  0  0  0  0  0  0  0
   37.8399  113.5299   -5.5872 O   0  0  0  0  0  0  0  0  0  0  0  0
   37.3921  113.9364   -3.9642 N   0  0  0  0  0  0  0  0  0  0  0  0
   37.6466  114.1435   -3.0361 H   0  0  0  0  0  0  0  0  0  0  0  0
   36.4423  113.9225   -4.2229 H   0  0  0  0  0  0  0  0  0  0  0  0
   41.2925  115.4433   -1.4048 C   0  0  0  0  0  0  0  0  0  0  0  0
   40.5547  114.8826   -1.0289 C   0  0  0  0  0  0  0  0  0  0  0  0
   40.7668  114.0219   -0.5663 C   0  0  0  0  0  0  0  0  0  0  0  0
   40.3700  113.1655   -0.8968 O   0  0  0  0  0  0  0  0  0  0  0  0
   41.3759  114.0173    0.2269 N   0  0  0  0  0  0  0  0  0  0  0  0
   41.7666  114.8604    0.5523 H   0  0  0  0  0  0  0  0  0  0  0  0
   41.5848  113.1698    0.6823 H   0  0  0  0  0  0  0  0  0  0  0  0
   43.6411  120.3028    0.1052 C   0  0  0  0  0  0  0  0  0  0  0  0
   43.4214  121.2562   -0.1017 O   0  0  0  0  0  0  0  0  0  0  0  0
   42.8972  121.7800    0.5243 H   0  0  0  0  0  0  0  0  0  0  0  0
   47.0598  118.7509   -0.0029 C   0  0  0  0  0  0  0  0  0  0  0  0
   46.9560  117.7576    0.0470 C   0  0  0  0  0  0  0  0  0  0  0  0
   47.2123  117.1780    0.8205 C   0  0  0  0  0  0  0  0  0  0  0  0
   46.9924  116.2316    0.5838 N   0  0  0  0  0  0  0  0  0  0  0  0
   46.6001  116.2264   -0.3361 C   0  0  0  0  0  0  0  0  0  0  0  0
   46.5777  117.1696   -0.6677 N   0  0  0  0  0  0  0  0  0  0  0  0
   46.2420  117.4669   -1.5442 H   0  0  0  0  0  0  0  0  0  0  0  0
 95 96  1  0  0  0
 95 97  1  0  0  0
 95 98  1  0  0  0
 96 91  1  0  0  0
 96 99  1  0  0  0
 91 92  2  0  0  0
 91 93  1  0  0  0
 93 90  1  0  0  0
 93 94  1  0  0  0
 90103  1  0  0  0
 90 86  1  0  0  0
103104  1  0  0  0
104105  1  0  0  0
105106  2  0  0  0
105107  1  0  0  0
107108  1  0  0  0
107109  1  0  0  0
 86 87  2  0  0  0
 86 88  1  0  0  0
 88 85  1  0  0  0
 88 89  1  0  0  0
 85110  1  0  0  0
 85 81  1  0  0  0
110111  1  0  0  0
111112  1  0  0  0
112113  2  0  0  0
112114  1  0  0  0
114115  1  0  0  0
114116  1  0  0  0
 81 82  2  0  0  0
 81 83  1  0  0  0
 83 79  1  0  0  0
 83 84  1  0  0  0
 79 80  1  0  0  0
 79 75  1  0  0  0
 75 76  2  0  0  0
 75 77  1  0  0  0
 77 74  1  0  0  0
 77 78  1  0  0  0
 74117  1  0  0  0
 74 70  1  0  0  0
117118  1  0  0  0
118119  1  0  0  0
 70 71  2  0  0  0
 70 72  1  0  0  0
 72 69  1  0  0  0
 72 73  1  0  0  0
 69120  1  0  0  0
 69 65  1  0  0  0
120121  1  0  0  0
121125  1  0  0  0
121122  2  0  0  0
122123  1  0  0  0
123124  2  0  0  0
124125  1  0  0  0
125126  1  0  0  0
 65 66  2  0  0  0
 65 67  1  0  0  0
 67  1  1  0  0  0
 67 68  1  0  0  0
  1  2  1  0  0  0
  1 10  1  0  0  0
  2  8  2  0  0  0
  2  3  1  0  0  0
  3  4  2  0  0  0
  4  5  1  0  0  0
  5  6  1  0  0  0
  5  7  2  0  0  0
  6  9  1  0  0  0
  7  8  1  0  0  0
 10 11  2  0  0  0
 10 12  1  0  0  0
 12 14  1  0  0  0
 12 13  1  0  0  0
 14 58  1  0  0  0
 14 15  1  0  0  0
 58 59  1  0  0  0
 59 60  1  0  0  0
 60 61  1  0  0  0
 61 62  1  0  0  0
 62 63  1  0  0  0
 62 64  1  0  0  0
 15 16  2  0  0  0
 15 17  1  0  0  0
 17 19  1  0  0  0
 17 18  1  0  0  0
 19 51  1  0  0  0
 19 20  1  0  0  0
 51 52  1  0  0  0
 52 53  1  0  0  0
 53 54  2  0  0  0
 53 55  1  0  0  0
 55 56  1  0  0  0
 55 57  1  0  0  0
 20 21  2  0  0  0
 20 22  1  0  0  0
 22 24  1  0  0  0
 22 23  1  0  0  0
 24 44  1  0  0  0
 24 25  1  0  0  0
 44 45  1  0  0  0
 45 49  1  0  0  0
 45 46  2  0  0  0
 46 47  1  0  0  0
 47 48  2  0  0  0
 48 49  1  0  0  0
 49 50  1  0  0  0
 25 26  2  0  0  0
 25 27  1  0  0  0
 27 29  1  0  0  0
 27 28  1  0  0  0
 29 41  1  0  0  0
 29 30  1  0  0  0
 41 42  1  0  0  0
 42 43  1  0  0  0
 30 31  2  0  0  0
 30 32  1  0  0  0
 32 36  1  0  0  0
 32 33  1  0  0  0
 33 34  1  0  0  0
 34 35  1  0  0  0
 35 36  1  0  0  0
 36 37  1  0  0  0
 37 38  1  0  0  0
 37 39  2  0  0  0
 38 40  1  0  0  0
 99100  1  0  0  0
 99101  1  0  0  0
100102  1  0  0  0
M  END
> <minimizedAffinity>
-10.37229

$$$$



126129  0  0  0  0  0  0  0  0999 V2000
   47.2433  120.2942    3.1788 C   0  0  0  0  0  0  0  0  0  0  0  0
   46.8452  121.1444    3.5231 C   0  0  0  0  0  0  0  0  0  0  0  0
   45.9505  121.4467    3.1942 C   0  0  0  0  0  0  0  0  0  0  0  0
   45.5524  122.2971    3.5386 C   0  0  0  0  0  0  0  0  0  0  0  0
   46.0489  122.8450    4.2118 C   0  0  0  0  0  0  0  0  0  0  0  0
   45.6508  123.6952    4.5561 O   0  0  0  0  0  0  0  0  0  0  0  0
   46.9436  122.5426    4.5406 C   0  0  0  0  0  0  0  0  0  0  0  0
   47.3417  121.6924    4.1963 C   0  0  0  0  0  0  0  0  0  0  0  0
   44.8125  123.9785    4.2479 H   0  0  0  0  0  0  0  0  0  0  0  0
   48.0927  119.9441    3.5735 C   0  0  0  0  0  0  0  0  0  0  0  0
   48.9537  120.4279    3.4165 O   0  0  0  0  0  0  0  0  0  0  0  0
   48.0812  119.1102    4.1252 N   0  0  0  0  0  0  0  0  0  0  0  0
   47.2336  118.6339    4.2798 H   0  0  0  0  0  0  0  0  0  0  0  0
   48.9307  118.7600    4.5200 C   0  0  0  0  0  0  0  0  0  0  0  0
   49.0681  118.7816    5.5103 C   0  0  0  0  0  0  0  0  0  0  0  0
   48.5832  118.1328    6.0966 O   0  0  0  0  0  0  0  0  0  0  0  0
   49.6904  119.4522    5.9142 N   0  0  0  0  0  0  0  0  0  0  0  0
   50.1678  120.0909    5.3369 H   0  0  0  0  0  0  0  0  0  0  0  0
   49.8278  119.4738    6.9044 C   0  0  0  0  0  0  0  0  0  0  0  0
   49.3540  120.1570    7.4601 C   0  0  0  0  0  0  0  0  0  0  0  0
   48.9807  119.9041    8.3527 O   0  0  0  0  0  0  0  0  0  0  0  0
   49.2534  121.0932    7.1232 N   0  0  0  0  0  0  0  0  0  0  0  0
   49.6209  121.3422    6.2444 H   0  0  0  0  0  0  0  0  0  0  0  0
   48.7797  121.7764    7.6788 C   0  0  0  0  0  0  0  0  0  0  0  0
   49.0829  122.7292    7.6656 C   0  0  0  0  0  0  0  0  0  0  0  0
   49.4457  123.1500    8.4970 O   0  0  0  0  0  0  0  0  0  0  0  0
   49.0232  123.2612    6.8209 N   0  0  0  0  0  0  0  0  0  0  0  0
   48.6660  122.8469    6.0025 H   0  0  0  0  0  0  0  0  0  0  0  0
   49.3264  124.2141    6.8077 C   0  0  0  0  0  0  0  0  0  0  0  0
   48.6743  124.9434    6.6009 C   0  0  0  0  0  0  0  0  0  0  0  0
   48.1361  125.3561    7.3356 O   0  0  0  0  0  0  0  0  0  0  0  0
   48.5605  125.2601    5.6591 N   0  0  0  0  0  0  0  0  0  0  0  0
   49.0497  124.9128    4.8591 C   0  0  0  0  0  0  0  0  0  0  0  0
   48.7290  125.4178    4.0577 C   0  0  0  0  0  0  0  0  0  0  0  0
   48.0418  126.0772    4.3625 C   0  0  0  0  0  0  0  0  0  0  0  0
   47.9376  125.9797    5.3522 C   0  0  0  0  0  0  0  0  0  0  0  0
   47.3192  126.5089    5.9331 C   0  0  0  0  0  0  0  0  0  0  0  0
   46.4756  126.0939    6.2738 O   0  0  0  0  0  0  0  0  0  0  0  0
   47.5444  127.4532    6.1734 O   0  0  0  0  0  0  0  0  0  0  0  0
   46.2646  125.2092    6.0487 H   0  0  0  0  0  0  0  0  0  0  0  0
   50.2818  124.4375    7.0013 C   0  0  0  0  0  0  0  0  0  0  0  0
   50.9924  124.2155    6.3338 S   0  0  0  0  0  0  0  0  0  0  0  0
   50.6597  123.6096    5.1625 H   0  0  0  0  0  0  0  0  0  0  0  0
   48.0027  121.5068    8.2477 C   0  0  0  0  0  0  0  0  0  0  0  0
   47.1717  122.0629    8.2552 C   0  0  0  0  0  0  0  0  0  0  0  0
   46.4582  122.0632    7.5545 C   0  0  0  0  0  0  0  0  0  0  0  0
   45.7538  122.7169    7.8309 N   0  0  0  0  0  0  0  0  0  0  0  0
   46.0318  123.1207    8.7026 C   0  0  0  0  0  0  0  0  0  0  0  0
   46.9082  122.7164    8.9648 N   0  0  0  0  0  0  0  0  0  0  0  0
   47.4213  122.9253    9.7786 H   0  0  0  0  0  0  0  0  0  0  0  0
   50.4389  118.8123    7.3391 C   0  0  0  0  0  0  0  0  0  0  0  0
   51.3304  118.6128    6.9323 C   0  0  0  0  0  0  0  0  0  0  0  0
   51.7477  117.7130    7.0590 C   0  0  0  0  0  0  0  0  0  0  0  0
   51.4570  117.1293    7.8173 O   0  0  0  0  0  0  0  0  0  0  0  0
   52.4557  117.3967    6.4276 N   0  0  0  0  0  0  0  0  0  0  0  0
   52.7418  117.9714    5.6811 H   0  0  0  0  0  0  0  0  0  0  0  0
   52.8666  116.5108    6.5523 H   0  0  0  0  0  0  0  0  0  0  0  0
   49.6428  118.3882    3.9244 C   0  0  0  0  0  0  0  0  0  0  0  0
   49.6256  117.4218    3.6676 C   0  0  0  0  0  0  0  0  0  0  0  0
   50.4807  116.9084    3.5951 C   0  0  0  0  0  0  0  0  0  0  0  0
   50.5065  115.9416    3.8493 C   0  0  0  0  0  0  0  0  0  0  0  0
   50.2100  115.2448    3.1962 N   0  0  0  0  0  0  0  0  0  0  0  0
   49.8812  115.5203    2.2707 H   0  0  0  0  0  0  0  0  0  0  0  0
   50.2364  114.2587    3.4554 H   0  0  0  0  0  0  0  0  0  0  0  0
   47.2027  119.7704    1.5283 C   0  0  0  0  0  0  0  0  0  0  0  0
   48.0649  120.2468    1.3559 O   0  0  0  0  0  0  0  0  0  0  0  0
   46.7919  119.7941    2.4397 N   0  0  0  0  0  0  0  0  0  0  0  0
   45.9432  119.3250    2.6095 H   0  0  0  0  0  0  0  0  0  0  0  0
   46.7514  119.2702    0.7893 C   0  0  0  0  0  0  0  0  0  0  0  0
   45.3848  119.9634   -0.0181 C   0  0  0  0  0  0  0  0  0  0  0  0
   45.9984  120.5133   -0.5847 O   0  0  0  0  0  0  0  0  0  0  0  0
   45.7613  119.3419    0.6689 N   0  0  0  0  0  0  0  0  0  0  0  0
   45.1572  118.8005    1.2268 H   0  0  0  0  0  0  0  0  0  0  0  0
   44.3947  120.0351   -0.1384 C   0  0  0  0  0  0  0  0  0  0  0  0
   43.5420  119.0788   -1.3039 C   0  0  0  0  0  0  0  0  0  0  0  0
   43.4926  118.3247   -0.6490 O   0  0  0  0  0  0  0  0  0  0  0  0
   43.9930  119.9339   -1.0486 N   0  0  0  0  0  0  0  0  0  0  0  0
   44.0417  120.6763   -1.6934 H   0  0  0  0  0  0  0  0  0  0  0  0
   43.1403  118.9776   -2.2141 C   0  0  0  0  0  0  0  0  0  0  0  0
   42.6419  119.7393   -2.6281 C   0  0  0  0  0  0  0  0  0  0  0  0
   43.6895  118.0988   -3.6019 C   0  0  0  0  0  0  0  0  0  0  0  0
   44.0451  118.9457   -3.9974 O   0  0  0  0  0  0  0  0  0  0  0  0
   43.2371  118.1148   -2.7102 N   0  0  0  0  0  0  0  0  0  0  0  0
   42.8870  117.2811   -2.3209 H   0  0  0  0  0  0  0  0  0  0  0  0
   43.7863  117.2360   -4.0981 C   0  0  0  0  0  0  0  0  0  0  0  0
   42.3243  116.4782   -4.6350 C   0  0  0  0  0  0  0  0  0  0  0  0
   42.2469  117.1497   -5.3720 O   0  0  0  0  0  0  0  0  0  0  0  0
   43.0940  116.5213   -3.9981 N   0  0  0  0  0  0  0  0  0  0  0  0
   43.1702  115.8603   -3.2726 H   0  0  0  0  0  0  0  0  0  0  0  0
   41.6320  115.7636   -4.5351 C   0  0  0  0  0  0  0  0  0  0  0  0
   41.5262  114.6921   -5.8918 C   0  0  0  0  0  0  0  0  0  0  0  0
   42.4068  114.2892   -5.6422 O   0  0  0  0  0  0  0  0  0  0  0  0
   41.1388  115.4293   -5.3382 N   0  0  0  0  0  0  0  0  0  0  0  0
   40.2719  115.8260   -5.5838 H   0  0  0  0  0  0  0  0  0  0  0  0
   41.4423  114.4411   -7.6035 N   0  0  0  0  0  0  0  0  0  0  0  0
   41.0330  114.3578   -6.6950 C   0  0  0  0  0  0  0  0  0  0  0  0
   40.9393  114.1001   -8.4227 H   0  0  0  0  0  0  0  0  0  0  0  0
   42.3630  114.8670   -7.7110 H   0  0  0  0  0  0  0  0  0  0  0  0
   40.1305  113.9403   -6.5895 C   0  0  0  0  0  0  0  0  0  0  0  0
   39.9998  113.1884   -5.9433 O   0  0  0  0  0  0  0  0  0  0  0  0
   39.3587  114.2746   -7.1303 C   0  0  0  0  0  0  0  0  0  0  0  0
   40.7485  112.8641   -5.4187 H   0  0  0  0  0  0  0  0  0  0  0  0
   41.4328  115.3832   -3.6319 C   0  0  0  0  0  0  0  0  0  0  0  0
   40.5141  115.4661   -3.2460 C   0  0  0  0  0  0  0  0  0  0  0  0
   40.1887  114.7942   -2.5805 C   0  0  0  0  0  0  0  0  0  0  0  0
   39.6044  114.0390   -2.8772 O   0  0  0  0  0  0  0  0  0  0  0  0
   40.4479  114.8777   -1.6183 N   0  0  0  0  0  0  0  0  0  0  0  0
   41.0232  115.6213   -1.3262 H   0  0  0  0  0  0  0  0  0  0  0  0
   40.1276  114.2164   -0.9631 H   0  0  0  0  0  0  0  0  0  0  0  0
   44.5753  117.0879   -4.6943 C   0  0  0  0  0  0  0  0  0  0  0  0
   45.1805  116.3073   -4.5380 C   0  0  0  0  0  0  0  0  0  0  0  0
   45.6622  115.8863   -5.3066 C   0  0  0  0  0  0  0  0  0  0  0  0
   46.5437  116.2523   -5.6051 O   0  0  0  0  0  0  0  0  0  0  0  0
   45.2625  115.0994   -5.7767 N   0  0  0  0  0  0  0  0  0  0  0  0
   44.3947  114.7391   -5.4828 H   0  0  0  0  0  0  0  0  0  0  0  0
   45.7368  114.6850   -6.5334 H   0  0  0  0  0  0  0  0  0  0  0  0
   43.8062  120.2079    0.6514 C   0  0  0  0  0  0  0  0  0  0  0  0
   43.4859  121.1357    0.8428 O   0  0  0  0  0  0  0  0  0  0  0  0
   42.9150  121.3033    1.6090 H   0  0  0  0  0  0  0  0  0  0  0  0
   47.2903  118.6984    0.1706 C   0  0  0  0  0  0  0  0  0  0  0  0
   47.0551  117.7341    0.0488 C   0  0  0  0  0  0  0  0  0  0  0  0
   47.2436  116.9967    0.6974 C   0  0  0  0  0  0  0  0  0  0  0  0
   46.8951  116.1447    0.3064 N   0  0  0  0  0  0  0  0  0  0  0  0
   46.4913  116.3557   -0.5838 C   0  0  0  0  0  0  0  0  0  0  0  0
   46.5902  117.3380   -0.7429 N   0  0  0  0  0  0  0  0  0  0  0  0
   46.2837  117.8289   -1.5394 H   0  0  0  0  0  0  0  0  0  0  0  0
 95 96  1  0  0  0
 95 97  1  0  0  0
 95 98  1  0  0  0
 96 91  1  0  0  0
 96 99  1  0  0  0
 91 92  2  0  0  0
 91 93  1  0  0  0
 93 90  1  0  0  0
 93 94  1  0  0  0
 90103  1  0  0  0
 90 86  1  0  0  0
103104  1  0  0  0
104105  1  0  0  0
105106  2  0  0  0
105107  1  0  0  0
107108  1  0  0  0
107109  1  0  0  0
 86 87  2  0  0  0
 86 88  1  0  0  0
 88 85  1  0  0  0
 88 89  1  0  0  0
 85110  1  0  0  0
 85 81  1  0  0  0
110111  1  0  0  0
111112  1  0  0  0
112113  2  0  0  0
112114  1  0  0  0
114115  1  0  0  0
114116  1  0  0  0
 81 82  2  0  0  0
 81 83  1  0  0  0
 83 79  1  0  0  0
 83 84  1  0  0  0
 79 80  1  0  0  0
 79 75  1  0  0  0
 75 76  2  0  0  0
 75 77  1  0  0  0
 77 74  1  0  0  0
 77 78  1  0  0  0
 74117  1  0  0  0
 74 70  1  0  0  0
117118  1  0  0  0
118119  1  0  0  0
 70 71  2  0  0  0
 70 72  1  0  0  0
 72 69  1  0  0  0
 72 73  1  0  0  0
 69120  1  0  0  0
 69 65  1  0  0  0
120121  1  0  0  0
121125  1  0  0  0
121122  2  0  0  0
122123  1  0  0  0
123124  2  0  0  0
124125  1  0  0  0
125126  1  0  0  0
 65 66  2  0  0  0
 65 67  1  0  0  0
 67  1  1  0  0  0
 67 68  1  0  0  0
  1  2  1  0  0  0
  1 10  1  0  0  0
  2  8  2  0  0  0
  2  3  1  0  0  0
  3  4  2  0  0  0
  4  5  1  0  0  0
  5  6  1  0  0  0
  5  7  2  0  0  0
  6  9  1  0  0  0
  7  8  1  0  0  0
 10 11  2  0  0  0
 10 12  1  0  0  0
 12 14  1  0  0  0
 12 13  1  0  0  0
 14 58  1  0  0  0
 14 15  1  0  0  0
 58 59  1  0  0  0
 59 60  1  0  0  0
 60 61  1  0  0  0
 61 62  1  0  0  0
 62 63  1  0  0  0
 62 64  1  0  0  0
 15 16  2  0  0  0
 15 17  1  0  0  0
 17 19  1  0  0  0
 17 18  1  0  0  0
 19 51  1  0  0  0
 19 20  1  0  0  0
 51 52  1  0  0  0
 52 53  1  0  0  0
 53 54  2  0  0  0
 53 55  1  0  0  0
 55 56  1  0  0  0
 55 57  1  0  0  0
 20 21  2  0  0  0
 20 22  1  0  0  0
 22 24  1  0  0  0
 22 23  1  0  0  0
 24 44  1  0  0  0
 24 25  1  0  0  0
 44 45  1  0  0  0
 45 49  1  0  0  0
 45 46  2  0  0  0
 46 47  1  0  0  0
 47 48  2  0  0  0
 48 49  1  0  0  0
 49 50  1  0  0  0
 25 26  2  0  0  0
 25 27  1  0  0  0
 27 29  1  0  0  0
 27 28  1  0  0  0
 29 41  1  0  0  0
 29 30  1  0  0  0
 41 42  1  0  0  0
 42 43  1  0  0  0
 30 31  2  0  0  0
 30 32  1  0  0  0
 32 36  1  0  0  0
 32 33  1  0  0  0
 33 34  1  0  0  0
 34 35  1  0  0  0
 35 36  1  0  0  0
 36 37  1  0  0  0
 37 38  1  0  0  0
 37 39  2  0  0  0
 38 40  1  0  0  0
 99100  1  0  0  0
 99101  1  0  0  0
100102  1  0  0  0
M  END
> <minimizedAffinity>
-10.28892

$$$$



126129  0  0  0  0  0  0  0  0999 V2000
   46.9098  120.2293    2.8152 C   0  0  0  0  0  0  0  0  0  0  0  0
   46.4527  121.0382    3.1848 C   0  0  0  0  0  0  0  0  0  0  0  0
   46.9329  121.6332    3.8293 C   0  0  0  0  0  0  0  0  0  0  0  0
   46.4757  122.4422    4.1989 C   0  0  0  0  0  0  0  0  0  0  0  0
   45.5384  122.6562    3.9240 C   0  0  0  0  0  0  0  0  0  0  0  0
   45.0813  123.4652    4.2937 O   0  0  0  0  0  0  0  0  0  0  0  0
   45.0582  122.0613    3.2795 C   0  0  0  0  0  0  0  0  0  0  0  0
   45.5153  121.2523    2.9099 C   0  0  0  0  0  0  0  0  0  0  0  0
   45.5313  124.0226    4.8976 H   0  0  0  0  0  0  0  0  0  0  0  0
   47.8059  119.9574    3.1658 C   0  0  0  0  0  0  0  0  0  0  0  0
   48.6326  120.4067    2.8271 O   0  0  0  0  0  0  0  0  0  0  0  0
   47.8754  119.2363    3.8551 N   0  0  0  0  0  0  0  0  0  0  0  0
   47.0614  118.7940    4.1885 H   0  0  0  0  0  0  0  0  0  0  0  0
   48.7716  118.9644    4.2058 C   0  0  0  0  0  0  0  0  0  0  0  0
   48.9350  118.9358    5.1919 C   0  0  0  0  0  0  0  0  0  0  0  0
   48.4586  118.2633    5.7583 O   0  0  0  0  0  0  0  0  0  0  0  0
   49.5747  119.5797    5.6116 N   0  0  0  0  0  0  0  0  0  0  0  0
   50.0436  120.2417    5.0539 H   0  0  0  0  0  0  0  0  0  0  0  0
   49.7381  119.5511    6.5977 C   0  0  0  0  0  0  0  0  0  0  0  0
   49.4794  120.3292    7.1701 C   0  0  0  0  0  0  0  0  0  0  0  0
   49.7583  120.3583    8.1300 O   0  0  0  0  0  0  0  0  0  0  0  0
   48.9418  121.0781    6.7827 N   0  0  0  0  0  0  0  0  0  0  0  0
   48.6672  121.0494    5.8377 H   0  0  0  0  0  0  0  0  0  0  0  0
   48.6831  121.8562    7.3551 C   0  0  0  0  0  0  0  0  0  0  0  0
   49.0231  122.7713    7.1383 C   0  0  0  0  0  0  0  0  0  0  0  0
   49.4529  123.3266    7.8503 O   0  0  0  0  0  0  0  0  0  0  0  0
   48.9332  123.1310    6.2096 N   0  0  0  0  0  0  0  0  0  0  0  0
   48.5101  122.5843    5.5088 H   0  0  0  0  0  0  0  0  0  0  0  0
   49.2732  124.0461    5.9928 C   0  0  0  0  0  0  0  0  0  0  0  0
   48.7238  124.6632    5.4294 C   0  0  0  0  0  0  0  0  0  0  0  0
   48.8865  124.7189    4.4444 O   0  0  0  0  0  0  0  0  0  0  0  0
   48.0116  125.2244    5.8512 N   0  0  0  0  0  0  0  0  0  0  0  0
   47.7736  125.2400    6.8223 C   0  0  0  0  0  0  0  0  0  0  0  0
   47.0273  125.8939    6.9470 C   0  0  0  0  0  0  0  0  0  0  0  0
   46.8041  126.2823    6.0530 C   0  0  0  0  0  0  0  0  0  0  0  0
   47.4124  125.8686    5.3757 C   0  0  0  0  0  0  0  0  0  0  0  0
   47.4202  126.0646    4.3952 C   0  0  0  0  0  0  0  0  0  0  0  0
   47.9693  126.8215    4.0409 O   0  0  0  0  0  0  0  0  0  0  0  0
   46.8788  125.5036    3.7688 O   0  0  0  0  0  0  0  0  0  0  0  0
   48.4765  127.3471    4.6278 H   0  0  0  0  0  0  0  0  0  0  0  0
   50.1626  124.3443    6.3395 C   0  0  0  0  0  0  0  0  0  0  0  0
   50.9726  124.2829    5.7563 S   0  0  0  0  0  0  0  0  0  0  0  0
   50.8648  123.7940    4.4918 H   0  0  0  0  0  0  0  0  0  0  0  0
   48.0844  121.7192    8.1443 C   0  0  0  0  0  0  0  0  0  0  0  0
   47.1705  122.1248    8.1550 C   0  0  0  0  0  0  0  0  0  0  0  0
   46.7577  122.6237    8.9171 C   0  0  0  0  0  0  0  0  0  0  0  0
   45.8410  122.9101    8.6387 N   0  0  0  0  0  0  0  0  0  0  0  0
   45.6871  122.5882    7.7044 C   0  0  0  0  0  0  0  0  0  0  0  0
   46.5089  122.1028    7.4056 N   0  0  0  0  0  0  0  0  0  0  0  0
   46.6428  121.6780    6.5276 H   0  0  0  0  0  0  0  0  0  0  0  0
   50.1602  118.7444    7.0114 C   0  0  0  0  0  0  0  0  0  0  0  0
   51.1500  118.6138    6.9555 C   0  0  0  0  0  0  0  0  0  0  0  0
   51.5470  117.7148    7.1404 C   0  0  0  0  0  0  0  0  0  0  0  0
   51.2474  117.1903    7.9374 O   0  0  0  0  0  0  0  0  0  0  0  0
   52.2435  117.3404    6.5283 N   0  0  0  0  0  0  0  0  0  0  0  0
   52.5384  117.8568    5.7437 H   0  0  0  0  0  0  0  0  0  0  0  0
   52.6343  116.4553    6.7103 H   0  0  0  0  0  0  0  0  0  0  0  0
   49.5043  118.7211    3.5703 C   0  0  0  0  0  0  0  0  0  0  0  0
   50.0826  117.9262    3.7545 C   0  0  0  0  0  0  0  0  0  0  0  0
   49.8592  117.0404    3.3477 C   0  0  0  0  0  0  0  0  0  0  0  0
   50.3309  116.2148    3.6574 C   0  0  0  0  0  0  0  0  0  0  0  0
   50.1095  115.3294    3.2486 N   0  0  0  0  0  0  0  0  0  0  0  0
   49.4026  115.2685    2.5158 H   0  0  0  0  0  0  0  0  0  0  0  0
   50.5906  114.4873    3.5645 H   0  0  0  0  0  0  0  0  0  0  0  0
   46.7281  119.8329    1.1389 C   0  0  0  0  0  0  0  0  0  0  0  0
   47.4246  120.5106    0.9031 O   0  0  0  0  0  0  0  0  0  0  0  0
   46.4707  119.6922    2.0949 N   0  0  0  0  0  0  0  0  0  0  0  0
   45.7850  119.0250    2.3271 H   0  0  0  0  0  0  0  0  0  0  0  0
   46.2890  119.2958    0.4187 C   0  0  0  0  0  0  0  0  0  0  0  0
   44.9574  119.4986   -0.6701 C   0  0  0  0  0  0  0  0  0  0  0  0
   45.5928  119.5297   -1.4416 O   0  0  0  0  0  0  0  0  0  0  0  0
   45.3055  119.3817    0.2600 N   0  0  0  0  0  0  0  0  0  0  0  0
   44.6798  119.3511    1.0196 H   0  0  0  0  0  0  0  0  0  0  0  0
   43.9738  119.5845   -0.8288 C   0  0  0  0  0  0  0  0  0  0  0  0
   43.0172  118.3062   -1.5001 C   0  0  0  0  0  0  0  0  0  0  0  0
   42.8992  117.9151   -0.5873 O   0  0  0  0  0  0  0  0  0  0  0  0
   43.5545  119.1408   -1.6208 N   0  0  0  0  0  0  0  0  0  0  0  0
   43.6706  119.5259   -2.5194 H   0  0  0  0  0  0  0  0  0  0  0  0
   42.5979  117.8625   -2.2921 C   0  0  0  0  0  0  0  0  0  0  0  0
   42.5375  118.3487   -3.1638 C   0  0  0  0  0  0  0  0  0  0  0  0
   41.4166  116.6692   -2.7169 C   0  0  0  0  0  0  0  0  0  0  0  0
   40.9533  117.3357   -3.3009 O   0  0  0  0  0  0  0  0  0  0  0  0
   42.2389  116.9326   -2.2125 N   0  0  0  0  0  0  0  0  0  0  0  0
   42.6950  116.2764   -1.6374 H   0  0  0  0  0  0  0  0  0  0  0  0
   41.0575  115.7392   -2.6372 C   0  0  0  0  0  0  0  0  0  0  0  0
   41.0341  114.8541   -4.1258 C   0  0  0  0  0  0  0  0  0  0  0  0
   42.0309  114.7802   -4.0976 O   0  0  0  0  0  0  0  0  0  0  0  0
   40.5474  115.3336   -3.3956 N   0  0  0  0  0  0  0  0  0  0  0  0
   39.5660  115.4063   -3.4234 H   0  0  0  0  0  0  0  0  0  0  0  0
   40.5240  114.4484   -4.8842 C   0  0  0  0  0  0  0  0  0  0  0  0
   38.9743  113.6834   -4.7683 C   0  0  0  0  0  0  0  0  0  0  0  0
   39.4209  112.8021   -4.6142 O   0  0  0  0  0  0  0  0  0  0  0  0
   39.5259  114.5066   -4.9033 N   0  0  0  0  0  0  0  0  0  0  0  0
   39.0862  115.3743   -5.0549 H   0  0  0  0  0  0  0  0  0  0  0  0
   37.5058  113.9874   -5.6348 N   0  0  0  0  0  0  0  0  0  0  0  0
   37.9762  113.7417   -4.7873 C   0  0  0  0  0  0  0  0  0  0  0  0
   36.4877  114.0468   -5.6543 H   0  0  0  0  0  0  0  0  0  0  0  0
   38.0441  114.1787   -6.4799 H   0  0  0  0  0  0  0  0  0  0  0  0
   37.4485  113.5541   -3.9589 C   0  0  0  0  0  0  0  0  0  0  0  0
   37.7221  113.9633   -3.0884 O   0  0  0  0  0  0  0  0  0  0  0  0
   36.6471  112.9574   -4.0009 C   0  0  0  0  0  0  0  0  0  0  0  0
   38.4995  114.5421   -3.0477 H   0  0  0  0  0  0  0  0  0  0  0  0
   41.0119  113.9846   -5.6236 C   0  0  0  0  0  0  0  0  0  0  0  0
   41.0141  114.3759   -6.5439 C   0  0  0  0  0  0  0  0  0  0  0  0
   41.4158  113.8647   -7.3037 C   0  0  0  0  0  0  0  0  0  0  0  0
   42.2860  114.1585   -7.6994 O   0  0  0  0  0  0  0  0  0  0  0  0
   40.9474  113.0598   -7.6679 N   0  0  0  0  0  0  0  0  0  0  0  0
   40.0907  112.7706   -7.2783 H   0  0  0  0  0  0  0  0  0  0  0  0
   41.3429  112.5565   -8.4159 H   0  0  0  0  0  0  0  0  0  0  0  0
   41.2086  115.2149   -1.7992 C   0  0  0  0  0  0  0  0  0  0  0  0
   40.4499  114.7202   -1.3753 C   0  0  0  0  0  0  0  0  0  0  0  0
   40.6120  113.8356   -0.9382 C   0  0  0  0  0  0  0  0  0  0  0  0
   40.2024  113.0069   -1.3196 O   0  0  0  0  0  0  0  0  0  0  0  0
   41.1838  113.7796   -0.1196 N   0  0  0  0  0  0  0  0  0  0  0  0
   41.5870  114.5955    0.2559 H   0  0  0  0  0  0  0  0  0  0  0  0
   41.3433  112.9086    0.3108 H   0  0  0  0  0  0  0  0  0  0  0  0
   43.4096  120.1141   -0.1954 C   0  0  0  0  0  0  0  0  0  0  0  0
   43.0251  120.9916   -0.4822 O   0  0  0  0  0  0  0  0  0  0  0  0
   42.4778  121.5052    0.1323 H   0  0  0  0  0  0  0  0  0  0  0  0
   46.8336  118.6727   -0.1429 C   0  0  0  0  0  0  0  0  0  0  0  0
   46.9306  117.7140    0.1243 C   0  0  0  0  0  0  0  0  0  0  0  0
   46.4648  116.9362   -0.2976 C   0  0  0  0  0  0  0  0  0  0  0  0
   46.7568  116.1062    0.1777 N   0  0  0  0  0  0  0  0  0  0  0  0
   47.4030  116.3711    0.8935 C   0  0  0  0  0  0  0  0  0  0  0  0
   47.5104  117.3648    0.8604 N   0  0  0  0  0  0  0  0  0  0  0  0
   48.0860  117.9045    1.4492 H   0  0  0  0  0  0  0  0  0  0  0  0
 95 96  1  0  0  0
 95 97  1  0  0  0
 95 98  1  0  0  0
 96 91  1  0  0  0
 96 99  1  0  0  0
 91 92  2  0  0  0
 91 93  1  0  0  0
 93 90  1  0  0  0
 93 94  1  0  0  0
 90103  1  0  0  0
 90 86  1  0  0  0
103104  1  0  0  0
104105  1  0  0  0
105106  2  0  0  0
105107  1  0  0  0
107108  1  0  0  0
107109  1  0  0  0
 86 87  2  0  0  0
 86 88  1  0  0  0
 88 85  1  0  0  0
 88 89  1  0  0  0
 85110  1  0  0  0
 85 81  1  0  0  0
110111  1  0  0  0
111112  1  0  0  0
112113  2  0  0  0
112114  1  0  0  0
114115  1  0  0  0
114116  1  0  0  0
 81 82  2  0  0  0
 81 83  1  0  0  0
 83 79  1  0  0  0
 83 84  1  0  0  0
 79 80  1  0  0  0
 79 75  1  0  0  0
 75 76  2  0  0  0
 75 77  1  0  0  0
 77 74  1  0  0  0
 77 78  1  0  0  0
 74117  1  0  0  0
 74 70  1  0  0  0
117118  1  0  0  0
118119  1  0  0  0
 70 71  2  0  0  0
 70 72  1  0  0  0
 72 69  1  0  0  0
 72 73  1  0  0  0
 69120  1  0  0  0
 69 65  1  0  0  0
120121  1  0  0  0
121125  1  0  0  0
121122  2  0  0  0
122123  1  0  0  0
123124  2  0  0  0
124125  1  0  0  0
125126  1  0  0  0
 65 66  2  0  0  0
 65 67  1  0  0  0
 67  1  1  0  0  0
 67 68  1  0  0  0
  1  2  1  0  0  0
  1 10  1  0  0  0
  2  8  2  0  0  0
  2  3  1  0  0  0
  3  4  2  0  0  0
  4  5  1  0  0  0
  5  6  1  0  0  0
  5  7  2  0  0  0
  6  9  1  0  0  0
  7  8  1  0  0  0
 10 11  2  0  0  0
 10 12  1  0  0  0
 12 14  1  0  0  0
 12 13  1  0  0  0
 14 58  1  0  0  0
 14 15  1  0  0  0
 58 59  1  0  0  0
 59 60  1  0  0  0
 60 61  1  0  0  0
 61 62  1  0  0  0
 62 63  1  0  0  0
 62 64  1  0  0  0
 15 16  2  0  0  0
 15 17  1  0  0  0
 17 19  1  0  0  0
 17 18  1  0  0  0
 19 51  1  0  0  0
 19 20  1  0  0  0
 51 52  1  0  0  0
 52 53  1  0  0  0
 53 54  2  0  0  0
 53 55  1  0  0  0
 55 56  1  0  0  0
 55 57  1  0  0  0
 20 21  2  0  0  0
 20 22  1  0  0  0
 22 24  1  0  0  0
 22 23  1  0  0  0
 24 44  1  0  0  0
 24 25  1  0  0  0
 44 45  1  0  0  0
 45 49  1  0  0  0
 45 46  2  0  0  0
 46 47  1  0  0  0
 47 48  2  0  0  0
 48 49  1  0  0  0
 49 50  1  0  0  0
 25 26  2  0  0  0
 25 27  1  0  0  0
 27 29  1  0  0  0
 27 28  1  0  0  0
 29 41  1  0  0  0
 29 30  1  0  0  0
 41 42  1  0  0  0
 42 43  1  0  0  0
 30 31  2  0  0  0
 30 32  1  0  0  0
 32 36  1  0  0  0
 32 33  1  0  0  0
 33 34  1  0  0  0
 34 35  1  0  0  0
 35 36  1  0  0  0
 36 37  1  0  0  0
 37 38  1  0  0  0
 37 39  2  0  0  0
 38 40  1  0  0  0
 99100  1  0  0  0
 99101  1  0  0  0
100102  1  0  0  0
M  END
> <minimizedAffinity>
-10.03169

$$$$



126129  0  0  0  0  0  0  0  0999 V2000
   46.9572  120.1860    2.8517 C   0  0  0  0  0  0  0  0  0  0  0  0
   46.5462  121.0390    3.1732 C   0  0  0  0  0  0  0  0  0  0  0  0
   45.5642  121.1933    3.0637 C   0  0  0  0  0  0  0  0  0  0  0  0
   45.1532  122.0464    3.3853 C   0  0  0  0  0  0  0  0  0  0  0  0
   45.7242  122.7452    3.8162 C   0  0  0  0  0  0  0  0  0  0  0  0
   45.3131  123.5982    4.1377 O   0  0  0  0  0  0  0  0  0  0  0  0
   46.7061  122.5909    3.9257 C   0  0  0  0  0  0  0  0  0  0  0  0
   47.1171  121.7379    3.6042 C   0  0  0  0  0  0  0  0  0  0  0  0
   44.3931  123.7427    4.0352 H   0  0  0  0  0  0  0  0  0  0  0  0
   47.8237  119.8713    3.2392 C   0  0  0  0  0  0  0  0  0  0  0  0
   48.6509  120.4219    3.1269 O   0  0  0  0  0  0  0  0  0  0  0  0
   47.8630  119.0061    3.7391 N   0  0  0  0  0  0  0  0  0  0  0  0
   47.0486  118.4641    3.8496 H   0  0  0  0  0  0  0  0  0  0  0  0
   48.7295  118.6914    4.1266 C   0  0  0  0  0  0  0  0  0  0  0  0
   48.9099  118.8029    5.1039 C   0  0  0  0  0  0  0  0  0  0  0  0
   48.4138  118.2466    5.7705 O   0  0  0  0  0  0  0  0  0  0  0  0
   49.5865  119.4706    5.4144 N   0  0  0  0  0  0  0  0  0  0  0  0
   50.0749  120.0181    4.7581 H   0  0  0  0  0  0  0  0  0  0  0  0
   49.7670  119.5820    6.3917 C   0  0  0  0  0  0  0  0  0  0  0  0
   49.3887  120.3661    6.8837 C   0  0  0  0  0  0  0  0  0  0  0  0
   49.6943  120.5672    7.8144 O   0  0  0  0  0  0  0  0  0  0  0  0
   48.7047  120.9491    6.4451 N   0  0  0  0  0  0  0  0  0  0  0  0
   48.4038  120.7511    5.5289 H   0  0  0  0  0  0  0  0  0  0  0  0
   48.3264  121.7331    6.9371 C   0  0  0  0  0  0  0  0  0  0  0  0
   48.8347  122.5935    6.9730 C   0  0  0  0  0  0  0  0  0  0  0  0
   49.4799  122.7623    7.7181 O   0  0  0  0  0  0  0  0  0  0  0  0
   48.6978  123.2851    6.2639 N   0  0  0  0  0  0  0  0  0  0  0  0
   48.0625  123.1189    5.5304 H   0  0  0  0  0  0  0  0  0  0  0  0
   49.2061  124.1455    6.2998 C   0  0  0  0  0  0  0  0  0  0  0  0
   48.8459  124.9585    5.8423 C   0  0  0  0  0  0  0  0  0  0  0  0
   49.3807  125.4079    5.1268 O   0  0  0  0  0  0  0  0  0  0  0  0
   47.9508  125.3222    6.1005 N   0  0  0  0  0  0  0  0  0  0  0  0
   47.3432  124.9463    6.8001 C   0  0  0  0  0  0  0  0  0  0  0  0
   46.5231  125.5174    6.8363 C   0  0  0  0  0  0  0  0  0  0  0  0
   46.6239  126.2462    6.1591 C   0  0  0  0  0  0  0  0  0  0  0  0
   47.5063  126.1256    5.7044 C   0  0  0  0  0  0  0  0  0  0  0  0
   47.8787  126.7064    4.9806 C   0  0  0  0  0  0  0  0  0  0  0  0
   47.7149  126.4767    4.0212 O   0  0  0  0  0  0  0  0  0  0  0  0
   48.4151  127.5169    5.2161 O   0  0  0  0  0  0  0  0  0  0  0  0
   47.2123  125.7173    3.8005 H   0  0  0  0  0  0  0  0  0  0  0  0
   50.0747  124.1929    6.7931 C   0  0  0  0  0  0  0  0  0  0  0  0
   50.9363  124.2249    6.2866 S   0  0  0  0  0  0  0  0  0  0  0  0
   50.9270  124.2038    4.9268 H   0  0  0  0  0  0  0  0  0  0  0  0
   47.4397  121.6568    7.3933 C   0  0  0  0  0  0  0  0  0  0  0  0
   47.3634  121.8444    8.3725 C   0  0  0  0  0  0  0  0  0  0  0  0
   46.6582  122.4015    8.8111 C   0  0  0  0  0  0  0  0  0  0  0  0
   46.8379  122.4094    9.7948 N   0  0  0  0  0  0  0  0  0  0  0  0
   47.6542  121.8570    9.9642 C   0  0  0  0  0  0  0  0  0  0  0  0
   47.9789  121.5079    9.0852 N   0  0  0  0  0  0  0  0  0  0  0  0
   48.7664  120.9337    8.9460 H   0  0  0  0  0  0  0  0  0  0  0  0
   50.3257  118.9094    6.8769 C   0  0  0  0  0  0  0  0  0  0  0  0
   51.2791  118.7664    6.6112 C   0  0  0  0  0  0  0  0  0  0  0  0
   51.7429  117.9139    6.8525 C   0  0  0  0  0  0  0  0  0  0  0  0
   51.5672  117.4822    7.7373 O   0  0  0  0  0  0  0  0  0  0  0  0
   52.3824  117.4932    6.2091 N   0  0  0  0  0  0  0  0  0  0  0  0
   52.5553  117.9182    5.3380 H   0  0  0  0  0  0  0  0  0  0  0  0
   52.8390  116.6540    6.4466 H   0  0  0  0  0  0  0  0  0  0  0  0
   49.4155  118.2653    3.5369 C   0  0  0  0  0  0  0  0  0  0  0  0
   49.3778  117.2825    3.3553 C   0  0  0  0  0  0  0  0  0  0  0  0
   50.1190  116.6878    3.6664 C   0  0  0  0  0  0  0  0  0  0  0  0
   50.2813  115.8118    3.2122 C   0  0  0  0  0  0  0  0  0  0  0  0
   50.0730  114.9565    3.6865 N   0  0  0  0  0  0  0  0  0  0  0  0
   49.6949  114.9775    4.6337 H   0  0  0  0  0  0  0  0  0  0  0  0
   50.2385  114.0630    3.2233 H   0  0  0  0  0  0  0  0  0  0  0  0
   46.7714  119.7515    1.1854 C   0  0  0  0  0  0  0  0  0  0  0  0
   47.4966  120.3938    0.9370 O   0  0  0  0  0  0  0  0  0  0  0  0
   46.5018  119.6476    2.1427 N   0  0  0  0  0  0  0  0  0  0  0  0
   45.7879  119.0153    2.3872 H   0  0  0  0  0  0  0  0  0  0  0  0
   46.3160  119.2131    0.4764 C   0  0  0  0  0  0  0  0  0  0  0  0
   44.8711  119.5054   -0.4329 C   0  0  0  0  0  0  0  0  0  0  0  0
   45.4220  119.7982   -1.2143 O   0  0  0  0  0  0  0  0  0  0  0  0
   45.3181  119.2128    0.4124 N   0  0  0  0  0  0  0  0  0  0  0  0
   44.7756  118.9244    1.1818 H   0  0  0  0  0  0  0  0  0  0  0  0
   43.8732  119.5051   -0.4968 C   0  0  0  0  0  0  0  0  0  0  0  0
   42.7808  118.3328   -1.1546 C   0  0  0  0  0  0  0  0  0  0  0  0
   42.7015  118.8758   -1.9905 O   0  0  0  0  0  0  0  0  0  0  0  0
   43.3667  118.6474   -0.4077 N   0  0  0  0  0  0  0  0  0  0  0  0
   43.4448  118.1129    0.4153 H   0  0  0  0  0  0  0  0  0  0  0  0
   42.2744  117.4752   -1.0655 C   0  0  0  0  0  0  0  0  0  0  0  0
   41.8925  117.2096   -0.1802 C   0  0  0  0  0  0  0  0  0  0  0  0
   41.2936  116.3804   -1.9817 C   0  0  0  0  0  0  0  0  0  0  0  0
   40.5622  116.4698   -1.3057 O   0  0  0  0  0  0  0  0  0  0  0  0
   42.1497  116.8831   -1.8616 N   0  0  0  0  0  0  0  0  0  0  0  0
   42.8698  116.7950   -2.5272 H   0  0  0  0  0  0  0  0  0  0  0  0
   41.1689  115.7882   -2.7779 C   0  0  0  0  0  0  0  0  0  0  0  0
   40.5287  114.1819   -2.6794 C   0  0  0  0  0  0  0  0  0  0  0  0
   41.4463  113.8272   -2.4998 O   0  0  0  0  0  0  0  0  0  0  0  0
   40.3900  115.1624   -2.8184 N   0  0  0  0  0  0  0  0  0  0  0  0
   39.4867  115.5116   -2.9952 H   0  0  0  0  0  0  0  0  0  0  0  0
   39.7498  113.5560   -2.7199 C   0  0  0  0  0  0  0  0  0  0  0  0
   38.6027  113.4551   -4.0137 C   0  0  0  0  0  0  0  0  0  0  0  0
   39.1695  112.7642   -4.4624 O   0  0  0  0  0  0  0  0  0  0  0  0
   38.8928  113.8510   -3.1425 N   0  0  0  0  0  0  0  0  0  0  0  0
   38.3348  114.5313   -2.7007 H   0  0  0  0  0  0  0  0  0  0  0  0
   36.9114  113.8071   -3.8877 N   0  0  0  0  0  0  0  0  0  0  0  0
   37.7456  113.7501   -4.4362 C   0  0  0  0  0  0  0  0  0  0  0  0
   36.0373  114.1080   -4.3186 H   0  0  0  0  0  0  0  0  0  0  0  0
   36.9347  113.5642   -2.8973 H   0  0  0  0  0  0  0  0  0  0  0  0
   37.7228  113.9882   -5.4072 C   0  0  0  0  0  0  0  0  0  0  0  0
   38.5772  114.1176   -5.9105 O   0  0  0  0  0  0  0  0  0  0  0  0
   36.8457  114.0970   -5.8748 C   0  0  0  0  0  0  0  0  0  0  0  0
   39.4281  114.0121   -5.4568 H   0  0  0  0  0  0  0  0  0  0  0  0
   39.8279  112.6352   -2.3379 C   0  0  0  0  0  0  0  0  0  0  0  0
   39.6787  112.4851   -1.3606 C   0  0  0  0  0  0  0  0  0  0  0  0
   39.4493  111.5716   -1.0243 C   0  0  0  0  0  0  0  0  0  0  0  0
   39.6711  110.7662   -1.5738 O   0  0  0  0  0  0  0  0  0  0  0  0
   38.9980  111.4637   -0.1384 N   0  0  0  0  0  0  0  0  0  0  0  0
   38.7796  112.2567    0.4025 H   0  0  0  0  0  0  0  0  0  0  0  0
   38.7721  110.5645    0.1926 H   0  0  0  0  0  0  0  0  0  0  0  0
   41.8231  115.8219   -3.5335 C   0  0  0  0  0  0  0  0  0  0  0  0
   41.5427  116.1858   -4.4217 C   0  0  0  0  0  0  0  0  0  0  0  0
   42.0262  115.9069   -5.2514 C   0  0  0  0  0  0  0  0  0  0  0  0
   41.5912  115.2784   -5.8963 O   0  0  0  0  0  0  0  0  0  0  0  0
   42.9447  116.2565   -5.4364 N   0  0  0  0  0  0  0  0  0  0  0  0
   43.3729  116.8752   -4.8015 H   0  0  0  0  0  0  0  0  0  0  0  0
   43.4207  115.9819   -6.2533 H   0  0  0  0  0  0  0  0  0  0  0  0
   43.3817  120.3624   -0.6499 C   0  0  0  0  0  0  0  0  0  0  0  0
   43.3833  121.0722    0.0545 O   0  0  0  0  0  0  0  0  0  0  0  0
   42.9065  121.9039   -0.0940 H   0  0  0  0  0  0  0  0  0  0  0  0
   46.8586  118.6750   -0.1688 C   0  0  0  0  0  0  0  0  0  0  0  0
   46.9004  117.6800   -0.0787 C   0  0  0  0  0  0  0  0  0  0  0  0
   46.6189  117.0148   -0.7703 C   0  0  0  0  0  0  0  0  0  0  0  0
   46.7756  116.0990   -0.4003 N   0  0  0  0  0  0  0  0  0  0  0  0
   47.1541  116.1983    0.5201 C   0  0  0  0  0  0  0  0  0  0  0  0
   47.2312  117.1754    0.7187 N   0  0  0  0  0  0  0  0  0  0  0  0
   47.5728  117.5710    1.5530 H   0  0  0  0  0  0  0  0  0  0  0  0
 95 96  1  0  0  0
 95 97  1  0  0  0
 95 98  1  0  0  0
 96 91  1  0  0  0
 96 99  1  0  0  0
 91 92  2  0  0  0
 91 93  1  0  0  0
 93 90  1  0  0  0
 93 94  1  0  0  0
 90103  1  0  0  0
 90 86  1  0  0  0
103104  1  0  0  0
104105  1  0  0  0
105106  2  0  0  0
105107  1  0  0  0
107108  1  0  0  0
107109  1  0  0  0
 86 87  2  0  0  0
 86 88  1  0  0  0
 88 85  1  0  0  0
 88 89  1  0  0  0
 85110  1  0  0  0
 85 81  1  0  0  0
110111  1  0  0  0
111112  1  0  0  0
112113  2  0  0  0
112114  1  0  0  0
114115  1  0  0  0
114116  1  0  0  0
 81 82  2  0  0  0
 81 83  1  0  0  0
 83 79  1  0  0  0
 83 84  1  0  0  0
 79 80  1  0  0  0
 79 75  1  0  0  0
 75 76  2  0  0  0
 75 77  1  0  0  0
 77 74  1  0  0  0
 77 78  1  0  0  0
 74117  1  0  0  0
 74 70  1  0  0  0
117118  1  0  0  0
118119  1  0  0  0
 70 71  2  0  0  0
 70 72  1  0  0  0
 72 69  1  0  0  0
 72 73  1  0  0  0
 69120  1  0  0  0
 69 65  1  0  0  0
120121  1  0  0  0
121125  1  0  0  0
121122  2  0  0  0
122123  1  0  0  0
123124  2  0  0  0
124125  1  0  0  0
125126  1  0  0  0
 65 66  2  0  0  0
 65 67  1  0  0  0
 67  1  1  0  0  0
 67 68  1  0  0  0
  1  2  1  0  0  0
  1 10  1  0  0  0
  2  8  2  0  0  0
  2  3  1  0  0  0
  3  4  2  0  0  0
  4  5  1  0  0  0
  5  6  1  0  0  0
  5  7  2  0  0  0
  6  9  1  0  0  0
  7  8  1  0  0  0
 10 11  2  0  0  0
 10 12  1  0  0  0
 12 14  1  0  0  0
 12 13  1  0  0  0
 14 58  1  0  0  0
 14 15  1  0  0  0
 58 59  1  0  0  0
 59 60  1  0  0  0
 60 61  1  0  0  0
 61 62  1  0  0  0
 62 63  1  0  0  0
 62 64  1  0  0  0
 15 16  2  0  0  0
 15 17  1  0  0  0
 17 19  1  0  0  0
 17 18  1  0  0  0
 19 51  1  0  0  0
 19 20  1  0  0  0
 51 52  1  0  0  0
 52 53  1  0  0  0
 53 54  2  0  0  0
 53 55  1  0  0  0
 55 56  1  0  0  0
 55 57  1  0  0  0
 20 21  2  0  0  0
 20 22  1  0  0  0
 22 24  1  0  0  0
 22 23  1  0  0  0
 24 44  1  0  0  0
 24 25  1  0  0  0
 44 45  1  0  0  0
 45 49  1  0  0  0
 45 46  2  0  0  0
 46 47  1  0  0  0
 47 48  2  0  0  0
 48 49  1  0  0  0
 49 50  1  0  0  0
 25 26  2  0  0  0
 25 27  1  0  0  0
 27 29  1  0  0  0
 27 28  1  0  0  0
 29 41  1  0  0  0
 29 30  1  0  0  0
 41 42  1  0  0  0
 42 43  1  0  0  0
 30 31  2  0  0  0
 30 32  1  0  0  0
 32 36  1  0  0  0
 32 33  1  0  0  0
 33 34  1  0  0  0
 34 35  1  0  0  0
 35 36  1  0  0  0
 36 37  1  0  0  0
 37 38  1  0  0  0
 37 39  2  0  0  0
 38 40  1  0  0  0
 99100  1  0  0  0
 99101  1  0  0  0
100102  1  0  0  0
M  END
> <minimizedAffinity>
-9.98759

$$$$



126129  0  0  0  0  0  0  0  0999 V2000
   49.8685  118.3926    5.7069 C   0  0  0  0  0  0  0  0  0  0  0  0
   50.3482  117.9845    6.4836 C   0  0  0  0  0  0  0  0  0  0  0  0
   49.8307  117.5272    7.2068 C   0  0  0  0  0  0  0  0  0  0  0  0
   50.3105  117.1191    7.9836 C   0  0  0  0  0  0  0  0  0  0  0  0
   51.3078  117.1684    8.0371 C   0  0  0  0  0  0  0  0  0  0  0  0
   51.7876  116.7604    8.8138 O   0  0  0  0  0  0  0  0  0  0  0  0
   51.8254  117.6258    7.3139 C   0  0  0  0  0  0  0  0  0  0  0  0
   51.3456  118.0338    6.5372 C   0  0  0  0  0  0  0  0  0  0  0  0
   51.3027  116.3318    9.4914 H   0  0  0  0  0  0  0  0  0  0  0  0
   49.7733  119.3860    5.6439 C   0  0  0  0  0  0  0  0  0  0  0  0
   50.5013  119.9807    5.9850 O   0  0  0  0  0  0  0  0  0  0  0  0
   48.9500  119.7848    5.2399 N   0  0  0  0  0  0  0  0  0  0  0  0
   48.2333  119.1993    4.9041 H   0  0  0  0  0  0  0  0  0  0  0  0
   48.8548  120.7783    5.1769 C   0  0  0  0  0  0  0  0  0  0  0  0
   47.9497  121.1988    5.2393 C   0  0  0  0  0  0  0  0  0  0  0  0
   47.3703  121.0225    6.0350 O   0  0  0  0  0  0  0  0  0  0  0  0
   47.6239  121.7955    4.5060 N   0  0  0  0  0  0  0  0  0  0  0  0
   48.1943  121.9690    3.7226 H   0  0  0  0  0  0  0  0  0  0  0  0
   46.7188  122.2160    4.5684 C   0  0  0  0  0  0  0  0  0  0  0  0
   46.5631  122.9762    5.1992 C   0  0  0  0  0  0  0  0  0  0  0  0
   45.7428  122.9915    5.7709 O   0  0  0  0  0  0  0  0  0  0  0  0
   47.2277  123.7211    5.2582 N   0  0  0  0  0  0  0  0  0  0  0  0
   48.0353  123.7060    4.6954 H   0  0  0  0  0  0  0  0  0  0  0  0
   47.0720  124.4813    5.8890 C   0  0  0  0  0  0  0  0  0  0  0  0
   47.3882  124.4183    6.8356 C   0  0  0  0  0  0  0  0  0  0  0  0
   46.8243  124.7832    7.5764 O   0  0  0  0  0  0  0  0  0  0  0  0
   48.2683  123.9905    7.0413 N   0  0  0  0  0  0  0  0  0  0  0  0
   48.8234  123.6313    6.3119 H   0  0  0  0  0  0  0  0  0  0  0  0
   48.5846  123.9275    7.9879 C   0  0  0  0  0  0  0  0  0  0  0  0
   48.0937  123.3518    8.6418 C   0  0  0  0  0  0  0  0  0  0  0  0
   47.2956  123.7121    9.1246 O   0  0  0  0  0  0  0  0  0  0  0  0
   48.4011  122.4156    8.8128 N   0  0  0  0  0  0  0  0  0  0  0  0
   49.1838  121.9661    8.3824 C   0  0  0  0  0  0  0  0  0  0  0  0
   49.2460  121.0373    8.7479 C   0  0  0  0  0  0  0  0  0  0  0  0
   48.5019  120.9130    9.4042 C   0  0  0  0  0  0  0  0  0  0  0  0
   47.9797  121.7648    9.4443 C   0  0  0  0  0  0  0  0  0  0  0  0
   47.1770  121.9358   10.0156 C   0  0  0  0  0  0  0  0  0  0  0  0
   47.2907  122.1598   10.9836 O   0  0  0  0  0  0  0  0  0  0  0  0
   46.2605  121.8829    9.6190 O   0  0  0  0  0  0  0  0  0  0  0  0
   48.1494  122.2094   11.3552 H   0  0  0  0  0  0  0  0  0  0  0  0
   49.3917  124.4404    8.2806 C   0  0  0  0  0  0  0  0  0  0  0  0
   50.1705  124.5430    7.6618 S   0  0  0  0  0  0  0  0  0  0  0  0
   50.1321  123.9851    6.4221 H   0  0  0  0  0  0  0  0  0  0  0  0
   46.6000  125.3044    5.5732 C   0  0  0  0  0  0  0  0  0  0  0  0
   47.1274  126.0935    5.2585 C   0  0  0  0  0  0  0  0  0  0  0  0
   47.4155  126.2706    4.3173 C   0  0  0  0  0  0  0  0  0  0  0  0
   47.9255  127.1306    4.3068 N   0  0  0  0  0  0  0  0  0  0  0  0
   47.9528  127.4852    5.2415 C   0  0  0  0  0  0  0  0  0  0  0  0
   47.4595  126.8442    5.8296 N   0  0  0  0  0  0  0  0  0  0  0  0
   47.3246  126.9361    6.8005 H   0  0  0  0  0  0  0  0  0  0  0  0
   45.9694  121.8763    4.0001 C   0  0  0  0  0  0  0  0  0  0  0  0
   45.9861  122.0224    3.0110 C   0  0  0  0  0  0  0  0  0  0  0  0
   45.3617  121.5122    2.4195 C   0  0  0  0  0  0  0  0  0  0  0  0
   44.4843  121.1919    2.7768 O   0  0  0  0  0  0  0  0  0  0  0  0
   45.6147  121.3222    1.4709 N   0  0  0  0  0  0  0  0  0  0  0  0
   46.4785  121.6376    1.1193 H   0  0  0  0  0  0  0  0  0  0  0  0
   45.0000  120.8199    0.8887 H   0  0  0  0  0  0  0  0  0  0  0  0
   49.6647  121.3512    5.0514 C   0  0  0  0  0  0  0  0  0  0  0  0
   49.5744  122.2647    4.6546 C   0  0  0  0  0  0  0  0  0  0  0  0
   50.3729  122.8633    4.5908 C   0  0  0  0  0  0  0  0  0  0  0  0
   50.2540  123.8359    4.3907 C   0  0  0  0  0  0  0  0  0  0  0  0
   50.8069  124.2714    3.6805 N   0  0  0  0  0  0  0  0  0  0  0  0
   51.4923  123.7237    3.1600 H   0  0  0  0  0  0  0  0  0  0  0  0
   50.6857  125.2634    3.4764 H   0  0  0  0  0  0  0  0  0  0  0  0
   49.9715  117.6870    4.1285 C   0  0  0  0  0  0  0  0  0  0  0  0
   50.8437  118.1523    3.9774 O   0  0  0  0  0  0  0  0  0  0  0  0
   49.4839  117.8072    4.9932 N   0  0  0  0  0  0  0  0  0  0  0  0
   48.6253  117.3491    5.1419 H   0  0  0  0  0  0  0  0  0  0  0  0
   49.5869  117.1016    3.4147 C   0  0  0  0  0  0  0  0  0  0  0  0
   48.4879  118.0133    2.4344 C   0  0  0  0  0  0  0  0  0  0  0  0
   47.8905  118.1439    3.2255 O   0  0  0  0  0  0  0  0  0  0  0  0
   49.3362  117.4922    2.5290 N   0  0  0  0  0  0  0  0  0  0  0  0
   49.9244  117.3636    1.7501 H   0  0  0  0  0  0  0  0  0  0  0  0
   48.2372  118.4038    1.5486 C   0  0  0  0  0  0  0  0  0  0  0  0
   46.8876  118.1972    0.4829 C   0  0  0  0  0  0  0  0  0  0  0  0
   46.5392  119.0957    0.7499 O   0  0  0  0  0  0  0  0  0  0  0  0
   47.7366  117.8513    0.8822 N   0  0  0  0  0  0  0  0  0  0  0  0
   48.0796  116.9667    0.6194 H   0  0  0  0  0  0  0  0  0  0  0  0
   46.3869  117.6447   -0.1835 C   0  0  0  0  0  0  0  0  0  0  0  0
   46.7771  116.7856   -0.5146 C   0  0  0  0  0  0  0  0  0  0  0  0
   45.2519  117.8213   -1.4798 C   0  0  0  0  0  0  0  0  0  0  0  0
   45.8984  117.3846   -2.1054 O   0  0  0  0  0  0  0  0  0  0  0  0
   45.4962  117.9513   -0.5189 N   0  0  0  0  0  0  0  0  0  0  0  0
   44.8597  118.3812    0.0970 H   0  0  0  0  0  0  0  0  0  0  0  0
   44.3610  118.1279   -1.8152 C   0  0  0  0  0  0  0  0  0  0  0  0
   43.5045  117.4800   -3.1740 C   0  0  0  0  0  0  0  0  0  0  0  0
   43.9387  118.1555   -3.7699 O   0  0  0  0  0  0  0  0  0  0  0  0
   43.7156  117.4662   -2.1967 N   0  0  0  0  0  0  0  0  0  0  0  0
   43.2881  116.8011   -1.6101 H   0  0  0  0  0  0  0  0  0  0  0  0
   42.8591  116.8182   -3.5555 C   0  0  0  0  0  0  0  0  0  0  0  0
   41.3918  116.4831   -2.6984 C   0  0  0  0  0  0  0  0  0  0  0  0
   40.9886  117.3238   -3.0598 O   0  0  0  0  0  0  0  0  0  0  0  0
   42.3270  116.2303   -2.9463 N   0  0  0  0  0  0  0  0  0  0  0  0
   42.7240  115.4026   -2.5905 H   0  0  0  0  0  0  0  0  0  0  0  0
   40.7717  116.1280   -1.1205 N   0  0  0  0  0  0  0  0  0  0  0  0
   40.8597  115.8951   -2.0891 C   0  0  0  0  0  0  0  0  0  0  0  0
   40.2291  115.5284   -0.4990 H   0  0  0  0  0  0  0  0  0  0  0  0
   41.2247  116.9654   -0.7542 H   0  0  0  0  0  0  0  0  0  0  0  0
   40.4157  115.0743   -2.4482 C   0  0  0  0  0  0  0  0  0  0  0  0
   39.8158  115.1387   -3.2457 O   0  0  0  0  0  0  0  0  0  0  0  0
   40.5715  114.1891   -2.0100 C   0  0  0  0  0  0  0  0  0  0  0  0
   39.6646  115.9974   -3.6709 H   0  0  0  0  0  0  0  0  0  0  0  0
   42.7458  116.7444   -4.5463 C   0  0  0  0  0  0  0  0  0  0  0  0
   43.2132  116.0181   -5.0503 C   0  0  0  0  0  0  0  0  0  0  0  0
   42.7041  115.4517   -5.6984 C   0  0  0  0  0  0  0  0  0  0  0  0
   41.7252  115.6043   -5.8344 O   0  0  0  0  0  0  0  0  0  0  0  0
   43.1740  114.7327   -6.2106 N   0  0  0  0  0  0  0  0  0  0  0  0
   44.1377  114.5825   -6.0767 H   0  0  0  0  0  0  0  0  0  0  0  0
   42.6728  114.1751   -6.8486 H   0  0  0  0  0  0  0  0  0  0  0  0
   44.1156  119.0962   -1.7691 C   0  0  0  0  0  0  0  0  0  0  0  0
   43.2705  119.3767   -1.3140 C   0  0  0  0  0  0  0  0  0  0  0  0
   43.0886  120.3464   -1.1509 C   0  0  0  0  0  0  0  0  0  0  0  0
   43.6081  120.8425   -0.4553 O   0  0  0  0  0  0  0  0  0  0  0  0
   42.3870  120.8199   -1.6835 N   0  0  0  0  0  0  0  0  0  0  0  0
   41.8755  120.3314   -2.3684 H   0  0  0  0  0  0  0  0  0  0  0  0
   42.2079  121.7746   -1.5230 H   0  0  0  0  0  0  0  0  0  0  0  0
   48.4871  119.3469    1.3292 C   0  0  0  0  0  0  0  0  0  0  0  0
   49.3750  119.7081    1.6141 O   0  0  0  0  0  0  0  0  0  0  0  0
   49.6174  120.6229    1.4013 H   0  0  0  0  0  0  0  0  0  0  0  0
   49.4531  116.1256    3.5868 C   0  0  0  0  0  0  0  0  0  0  0  0
   50.2418  115.5122    3.6265 C   0  0  0  0  0  0  0  0  0  0  0  0
   50.4794  114.9088    4.3877 C   0  0  0  0  0  0  0  0  0  0  0  0
   51.3159  114.4180    4.1437 N   0  0  0  0  0  0  0  0  0  0  0  0
   51.5952  114.7182    3.2315 C   0  0  0  0  0  0  0  0  0  0  0  0
   50.9314  115.3944    2.9120 N   0  0  0  0  0  0  0  0  0  0  0  0
   50.9530  115.8621    2.0459 H   0  0  0  0  0  0  0  0  0  0  0  0
 95 96  1  0  0  0
 95 97  1  0  0  0
 95 98  1  0  0  0
 96 91  1  0  0  0
 96 99  1  0  0  0
 91 92  2  0  0  0
 91 93  1  0  0  0
 93 90  1  0  0  0
 93 94  1  0  0  0
 90103  1  0  0  0
 90 86  1  0  0  0
103104  1  0  0  0
104105  1  0  0  0
105106  2  0  0  0
105107  1  0  0  0
107108  1  0  0  0
107109  1  0  0  0
 86 87  2  0  0  0
 86 88  1  0  0  0
 88 85  1  0  0  0
 88 89  1  0  0  0
 85110  1  0  0  0
 85 81  1  0  0  0
110111  1  0  0  0
111112  1  0  0  0
112113  2  0  0  0
112114  1  0  0  0
114115  1  0  0  0
114116  1  0  0  0
 81 82  2  0  0  0
 81 83  1  0  0  0
 83 79  1  0  0  0
 83 84  1  0  0  0
 79 80  1  0  0  0
 79 75  1  0  0  0
 75 76  2  0  0  0
 75 77  1  0  0  0
 77 74  1  0  0  0
 77 78  1  0  0  0
 74117  1  0  0  0
 74 70  1  0  0  0
117118  1  0  0  0
118119  1  0  0  0
 70 71  2  0  0  0
 70 72  1  0  0  0
 72 69  1  0  0  0
 72 73  1  0  0  0
 69120  1  0  0  0
 69 65  1  0  0  0
120121  1  0  0  0
121125  1  0  0  0
121122  2  0  0  0
122123  1  0  0  0
123124  2  0  0  0
124125  1  0  0  0
125126  1  0  0  0
 65 66  2  0  0  0
 65 67  1  0  0  0
 67  1  1  0  0  0
 67 68  1  0  0  0
  1  2  1  0  0  0
  1 10  1  0  0  0
  2  8  2  0  0  0
  2  3  1  0  0  0
  3  4  2  0  0  0
  4  5  1  0  0  0
  5  6  1  0  0  0
  5  7  2  0  0  0
  6  9  1  0  0  0
  7  8  1  0  0  0
 10 11  2  0  0  0
 10 12  1  0  0  0
 12 14  1  0  0  0
 12 13  1  0  0  0
 14 58  1  0  0  0
 14 15  1  0  0  0
 58 59  1  0  0  0
 59 60  1  0  0  0
 60 61  1  0  0  0
 61 62  1  0  0  0
 62 63  1  0  0  0
 62 64  1  0  0  0
 15 16  2  0  0  0
 15 17  1  0  0  0
 17 19  1  0  0  0
 17 18  1  0  0  0
 19 51  1  0  0  0
 19 20  1  0  0  0
 51 52  1  0  0  0
 52 53  1  0  0  0
 53 54  2  0  0  0
 53 55  1  0  0  0
 55 56  1  0  0  0
 55 57  1  0  0  0
 20 21  2  0  0  0
 20 22  1  0  0  0
 22 24  1  0  0  0
 22 23  1  0  0  0
 24 44  1  0  0  0
 24 25  1  0  0  0
 44 45  1  0  0  0
 45 49  1  0  0  0
 45 46  2  0  0  0
 46 47  1  0  0  0
 47 48  2  0  0  0
 48 49  1  0  0  0
 49 50  1  0  0  0
 25 26  2  0  0  0
 25 27  1  0  0  0
 27 29  1  0  0  0
 27 28  1  0  0  0
 29 41  1  0  0  0
 29 30  1  0  0  0
 41 42  1  0  0  0
 42 43  1  0  0  0
 30 31  2  0  0  0
 30 32  1  0  0  0
 32 36  1  0  0  0
 32 33  1  0  0  0
 33 34  1  0  0  0
 34 35  1  0  0  0
 35 36  1  0  0  0
 36 37  1  0  0  0
 37 38  1  0  0  0
 37 39  2  0  0  0
 38 40  1  0  0  0
 99100  1  0  0  0
 99101  1  0  0  0
100102  1  0  0  0
M  END
> <minimizedAffinity>
-9.76146

$$$$



126129  0  0  0  0  0  0  0  0999 V2000
   48.3842  119.0599    1.6358 C   0  0  0  0  0  0  0  0  0  0  0  0
   49.1258  119.5949    1.2310 C   0  0  0  0  0  0  0  0  0  0  0  0
   49.1869  119.6933    0.2377 C   0  0  0  0  0  0  0  0  0  0  0  0
   49.9286  120.2283   -0.1670 C   0  0  0  0  0  0  0  0  0  0  0  0
   50.6090  120.6650    0.4215 C   0  0  0  0  0  0  0  0  0  0  0  0
   51.3505  121.2000    0.0168 O   0  0  0  0  0  0  0  0  0  0  0  0
   50.5478  120.5666    1.4148 C   0  0  0  0  0  0  0  0  0  0  0  0
   49.8062  120.0316    1.8196 C   0  0  0  0  0  0  0  0  0  0  0  0
   51.4078  121.2921   -0.9139 H   0  0  0  0  0  0  0  0  0  0  0  0
   48.5740  118.4358    2.3936 C   0  0  0  0  0  0  0  0  0  0  0  0
   48.2846  117.4801    2.3388 O   0  0  0  0  0  0  0  0  0  0  0  0
   49.0531  118.7673    3.2064 N   0  0  0  0  0  0  0  0  0  0  0  0
   49.3380  119.7081    3.2603 H   0  0  0  0  0  0  0  0  0  0  0  0
   49.2429  118.1431    3.9643 C   0  0  0  0  0  0  0  0  0  0  0  0
   49.1380  118.4563    4.9082 C   0  0  0  0  0  0  0  0  0  0  0  0
   48.5193  117.9746    5.5289 O   0  0  0  0  0  0  0  0  0  0  0  0
   49.6516  119.2511    5.2313 N   0  0  0  0  0  0  0  0  0  0  0  0
   50.2606  119.7253    4.6202 H   0  0  0  0  0  0  0  0  0  0  0  0
   49.5467  119.5643    6.1752 C   0  0  0  0  0  0  0  0  0  0  0  0
   49.0282  120.3966    6.3711 C   0  0  0  0  0  0  0  0  0  0  0  0
   48.2088  120.6119    5.8398 O   0  0  0  0  0  0  0  0  0  0  0  0
   49.3290  121.0137    7.0983 N   0  0  0  0  0  0  0  0  0  0  0  0
   50.1357  120.8017    7.6213 H   0  0  0  0  0  0  0  0  0  0  0  0
   48.8105  121.8460    7.2941 C   0  0  0  0  0  0  0  0  0  0  0  0
   49.1695  122.7362    7.0139 C   0  0  0  0  0  0  0  0  0  0  0  0
   49.7848  123.2404    7.6198 O   0  0  0  0  0  0  0  0  0  0  0  0
   48.9131  123.1223    6.1277 N   0  0  0  0  0  0  0  0  0  0  0  0
   48.3073  122.6258    5.5313 H   0  0  0  0  0  0  0  0  0  0  0  0
   49.2721  124.0125    5.8475 C   0  0  0  0  0  0  0  0  0  0  0  0
   48.6660  124.8071    5.8109 C   0  0  0  0  0  0  0  0  0  0  0  0
   48.9258  125.6558    6.2716 O   0  0  0  0  0  0  0  0  0  0  0  0
   47.8000  124.7528    5.3137 N   0  0  0  0  0  0  0  0  0  0  0  0
   47.4528  123.9534    4.8234 C   0  0  0  0  0  0  0  0  0  0  0  0
   46.5674  124.1951    4.4262 C   0  0  0  0  0  0  0  0  0  0  0  0
   46.3675  125.1438    4.6711 C   0  0  0  0  0  0  0  0  0  0  0  0
   47.1292  125.4885    5.2196 C   0  0  0  0  0  0  0  0  0  0  0  0
   47.2067  126.4075    5.6061 C   0  0  0  0  0  0  0  0  0  0  0  0
   46.7794  126.6178    6.4854 O   0  0  0  0  0  0  0  0  0  0  0  0
   47.7114  127.1164    5.1132 O   0  0  0  0  0  0  0  0  0  0  0  0
   46.3066  125.9536    6.9472 H   0  0  0  0  0  0  0  0  0  0  0  0
   50.2372  124.1083    5.6037 C   0  0  0  0  0  0  0  0  0  0  0  0
   50.5629  123.7858    4.7150 S   0  0  0  0  0  0  0  0  0  0  0  0
   49.6932  123.2170    3.8376 H   0  0  0  0  0  0  0  0  0  0  0  0
   47.9331  121.7880    7.7703 C   0  0  0  0  0  0  0  0  0  0  0  0
   47.8930  121.9128    8.7617 C   0  0  0  0  0  0  0  0  0  0  0  0
   48.5210  121.5143    9.4302 C   0  0  0  0  0  0  0  0  0  0  0  0
   48.2340  121.8131   10.3402 N   0  0  0  0  0  0  0  0  0  0  0  0
   47.4285  122.3963   10.2343 C   0  0  0  0  0  0  0  0  0  0  0  0
   47.2178  122.4579    9.2586 N   0  0  0  0  0  0  0  0  0  0  0  0
   46.4759  122.9660    8.8578 H   0  0  0  0  0  0  0  0  0  0  0  0
   49.9602  119.0451    6.9232 C   0  0  0  0  0  0  0  0  0  0  0  0
   50.9451  118.8724    6.9272 C   0  0  0  0  0  0  0  0  0  0  0  0
   51.2970  117.9913    7.2431 C   0  0  0  0  0  0  0  0  0  0  0  0
   50.7674  117.4451    7.8923 O   0  0  0  0  0  0  0  0  0  0  0  0
   52.1783  117.6563    6.9099 N   0  0  0  0  0  0  0  0  0  0  0  0
   52.6996  118.1940    6.2708 H   0  0  0  0  0  0  0  0  0  0  0  0
   52.5247  116.7888    7.2210 H   0  0  0  0  0  0  0  0  0  0  0  0
   49.5376  117.2058    3.7784 C   0  0  0  0  0  0  0  0  0  0  0  0
   50.4939  116.9462    3.9137 C   0  0  0  0  0  0  0  0  0  0  0  0
   50.7212  116.0307    4.2457 C   0  0  0  0  0  0  0  0  0  0  0  0
   51.5940  115.6110    3.9967 C   0  0  0  0  0  0  0  0  0  0  0  0
   52.0663  115.0160    4.6470 N   0  0  0  0  0  0  0  0  0  0  0  0
   51.6578  114.8373    5.5644 H   0  0  0  0  0  0  0  0  0  0  0  0
   52.9566  114.5879    4.3930 H   0  0  0  0  0  0  0  0  0  0  0  0
   46.9241  119.9767    1.4703 C   0  0  0  0  0  0  0  0  0  0  0  0
   47.3265  120.7154    2.0112 O   0  0  0  0  0  0  0  0  0  0  0  0
   47.4529  119.1490    1.2826 N   0  0  0  0  0  0  0  0  0  0  0  0
   47.0567  118.4219    0.7501 H   0  0  0  0  0  0  0  0  0  0  0  0
   45.9927  120.0658    1.1172 C   0  0  0  0  0  0  0  0  0  0  0  0
   45.5261  119.1903   -0.3025 C   0  0  0  0  0  0  0  0  0  0  0  0
   45.9619  119.8852   -0.8744 O   0  0  0  0  0  0  0  0  0  0  0  0
   45.5415  119.2806    0.6932 N   0  0  0  0  0  0  0  0  0  0  0  0
   45.1123  118.5964    1.2563 H   0  0  0  0  0  0  0  0  0  0  0  0
   45.0748  118.4051   -0.7265 C   0  0  0  0  0  0  0  0  0  0  0  0
   43.5148  118.4780   -1.4756 C   0  0  0  0  0  0  0  0  0  0  0  0
   43.0823  118.2954   -0.5927 O   0  0  0  0  0  0  0  0  0  0  0  0
   44.5111  118.5328   -1.5425 N   0  0  0  0  0  0  0  0  0  0  0  0
   44.9369  118.7126   -2.4117 H   0  0  0  0  0  0  0  0  0  0  0  0
   42.9511  118.6057   -2.2916 C   0  0  0  0  0  0  0  0  0  0  0  0
   42.2317  119.3002   -2.2986 C   0  0  0  0  0  0  0  0  0  0  0  0
   42.6283  117.1666   -3.1996 C   0  0  0  0  0  0  0  0  0  0  0  0
   41.9941  116.8608   -2.4895 O   0  0  0  0  0  0  0  0  0  0  0  0
   43.1068  118.0390   -3.1007 N   0  0  0  0  0  0  0  0  0  0  0  0
   43.7313  118.3400   -3.7998 H   0  0  0  0  0  0  0  0  0  0  0  0
   42.7840  116.5997   -4.0087 C   0  0  0  0  0  0  0  0  0  0  0  0
   41.6086  115.6207   -4.8210 C   0  0  0  0  0  0  0  0  0  0  0  0
   41.3960  116.3832   -5.4321 O   0  0  0  0  0  0  0  0  0  0  0  0
   42.3027  115.7290   -4.1093 N   0  0  0  0  0  0  0  0  0  0  0  0
   42.5121  114.9784   -3.5077 H   0  0  0  0  0  0  0  0  0  0  0  0
   41.1273  114.7500   -4.9217 C   0  0  0  0  0  0  0  0  0  0  0  0
   40.3020  114.0479   -3.5704 C   0  0  0  0  0  0  0  0  0  0  0  0
   39.5187  114.6466   -3.7377 O   0  0  0  0  0  0  0  0  0  0  0  0
   41.1063  114.0996   -4.1624 N   0  0  0  0  0  0  0  0  0  0  0  0
   41.8775  113.5102   -3.9977 H   0  0  0  0  0  0  0  0  0  0  0  0
   40.0787  112.4335   -2.9839 N   0  0  0  0  0  0  0  0  0  0  0  0
   40.2810  113.3975   -2.8110 C   0  0  0  0  0  0  0  0  0  0  0  0
   40.0573  111.7701   -2.2095 H   0  0  0  0  0  0  0  0  0  0  0  0
   39.8938  112.1138   -3.9347 H   0  0  0  0  0  0  0  0  0  0  0  0
   40.4624  113.7110   -1.8790 C   0  0  0  0  0  0  0  0  0  0  0  0
   40.6325  114.6803   -1.7017 O   0  0  0  0  0  0  0  0  0  0  0  0
   40.4736  113.0552   -1.1242 C   0  0  0  0  0  0  0  0  0  0  0  0
   40.6216  115.3165   -2.4339 H   0  0  0  0  0  0  0  0  0  0  0  0
   40.6669  114.5297   -5.7816 C   0  0  0  0  0  0  0  0  0  0  0  0
   41.1052  113.9191   -6.4412 C   0  0  0  0  0  0  0  0  0  0  0  0
   40.6260  113.6633   -7.2809 C   0  0  0  0  0  0  0  0  0  0  0  0
   40.0838  114.3434   -7.7742 O   0  0  0  0  0  0  0  0  0  0  0  0
   40.6891  112.7273   -7.6272 N   0  0  0  0  0  0  0  0  0  0  0  0
   41.2229  112.0577   -7.1414 H   0  0  0  0  0  0  0  0  0  0  0  0
   40.2174  112.4754   -8.4537 H   0  0  0  0  0  0  0  0  0  0  0  0
   43.4211  116.9037   -4.7170 C   0  0  0  0  0  0  0  0  0  0  0  0
   44.1307  116.2832   -5.0508 C   0  0  0  0  0  0  0  0  0  0  0  0
   45.0866  116.5768   -5.0622 C   0  0  0  0  0  0  0  0  0  0  0  0
   45.3141  117.5437   -4.9463 O   0  0  0  0  0  0  0  0  0  0  0  0
   45.8150  115.9035   -5.1895 N   0  0  0  0  0  0  0  0  0  0  0  0
   45.5910  114.9517   -5.3036 H   0  0  0  0  0  0  0  0  0  0  0  0
   46.7560  116.1926   -5.2006 H   0  0  0  0  0  0  0  0  0  0  0  0
   45.1872  117.4921   -0.3344 C   0  0  0  0  0  0  0  0  0  0  0  0
   46.0408  116.9900   -0.4730 O   0  0  0  0  0  0  0  0  0  0  0  0
   46.1499  116.1043   -0.0926 H   0  0  0  0  0  0  0  0  0  0  0  0
   45.5127  120.9403    1.1880 C   0  0  0  0  0  0  0  0  0  0  0  0
   45.0871  121.2085    2.0522 C   0  0  0  0  0  0  0  0  0  0  0  0
   45.5665  121.5315    2.8681 C   0  0  0  0  0  0  0  0  0  0  0  0
   44.8831  121.7235    3.5725 N   0  0  0  0  0  0  0  0  0  0  0  0
   43.9812  121.5191    3.1917 C   0  0  0  0  0  0  0  0  0  0  0  0
   44.1074  121.2009    2.2522 N   0  0  0  0  0  0  0  0  0  0  0  0
   43.3925  120.9279    1.6328 H   0  0  0  0  0  0  0  0  0  0  0  0
 95 96  1  0  0  0
 95 97  1  0  0  0
 95 98  1  0  0  0
 96 91  1  0  0  0
 96 99  1  0  0  0
 91 92  2  0  0  0
 91 93  1  0  0  0
 93 90  1  0  0  0
 93 94  1  0  0  0
 90103  1  0  0  0
 90 86  1  0  0  0
103104  1  0  0  0
104105  1  0  0  0
105106  2  0  0  0
105107  1  0  0  0
107108  1  0  0  0
107109  1  0  0  0
 86 87  2  0  0  0
 86 88  1  0  0  0
 88 85  1  0  0  0
 88 89  1  0  0  0
 85110  1  0  0  0
 85 81  1  0  0  0
110111  1  0  0  0
111112  1  0  0  0
112113  2  0  0  0
112114  1  0  0  0
114115  1  0  0  0
114116  1  0  0  0
 81 82  2  0  0  0
 81 83  1  0  0  0
 83 79  1  0  0  0
 83 84  1  0  0  0
 79 80  1  0  0  0
 79 75  1  0  0  0
 75 76  2  0  0  0
 75 77  1  0  0  0
 77 74  1  0  0  0
 77 78  1  0  0  0
 74117  1  0  0  0
 74 70  1  0  0  0
117118  1  0  0  0
118119  1  0  0  0
 70 71  2  0  0  0
 70 72  1  0  0  0
 72 69  1  0  0  0
 72 73  1  0  0  0
 69120  1  0  0  0
 69 65  1  0  0  0
120121  1  0  0  0
121125  1  0  0  0
121122  2  0  0  0
122123  1  0  0  0
123124  2  0  0  0
124125  1  0  0  0
125126  1  0  0  0
 65 66  2  0  0  0
 65 67  1  0  0  0
 67  1  1  0  0  0
 67 68  1  0  0  0
  1  2  1  0  0  0
  1 10  1  0  0  0
  2  8  2  0  0  0
  2  3  1  0  0  0
  3  4  2  0  0  0
  4  5  1  0  0  0
  5  6  1  0  0  0
  5  7  2  0  0  0
  6  9  1  0  0  0
  7  8  1  0  0  0
 10 11  2  0  0  0
 10 12  1  0  0  0
 12 14  1  0  0  0
 12 13  1  0  0  0
 14 58  1  0  0  0
 14 15  1  0  0  0
 58 59  1  0  0  0
 59 60  1  0  0  0
 60 61  1  0  0  0
 61 62  1  0  0  0
 62 63  1  0  0  0
 62 64  1  0  0  0
 15 16  2  0  0  0
 15 17  1  0  0  0
 17 19  1  0  0  0
 17 18  1  0  0  0
 19 51  1  0  0  0
 19 20  1  0  0  0
 51 52  1  0  0  0
 52 53  1  0  0  0
 53 54  2  0  0  0
 53 55  1  0  0  0
 55 56  1  0  0  0
 55 57  1  0  0  0
 20 21  2  0  0  0
 20 22  1  0  0  0
 22 24  1  0  0  0
 22 23  1  0  0  0
 24 44  1  0  0  0
 24 25  1  0  0  0
 44 45  1  0  0  0
 45 49  1  0  0  0
 45 46  2  0  0  0
 46 47  1  0  0  0
 47 48  2  0  0  0
 48 49  1  0  0  0
 49 50  1  0  0  0
 25 26  2  0  0  0
 25 27  1  0  0  0
 27 29  1  0  0  0
 27 28  1  0  0  0
 29 41  1  0  0  0
 29 30  1  0  0  0
 41 42  1  0  0  0
 42 43  1  0  0  0
 30 31  2  0  0  0
 30 32  1  0  0  0
 32 36  1  0  0  0
 32 33  1  0  0  0
 33 34  1  0  0  0
 34 35  1  0  0  0
 35 36  1  0  0  0
 36 37  1  0  0  0
 37 38  1  0  0  0
 37 39  2  0  0  0
 38 40  1  0  0  0
 99100  1  0  0  0
 99101  1  0  0  0
100102  1  0  0  0
M  END
> <minimizedAffinity>
-8.76583

$$$$



126129  0  0  0  0  0  0  0  0999 V2000
   48.3401  119.0362    1.5702 C   0  0  0  0  0  0  0  0  0  0  0  0
   49.0884  119.5838    1.1957 C   0  0  0  0  0  0  0  0  0  0  0  0
   49.7521  120.0103    1.8102 C   0  0  0  0  0  0  0  0  0  0  0  0
   50.5004  120.5579    1.4356 C   0  0  0  0  0  0  0  0  0  0  0  0
   50.5849  120.6789    0.4465 C   0  0  0  0  0  0  0  0  0  0  0  0
   51.3332  121.2265    0.0720 O   0  0  0  0  0  0  0  0  0  0  0  0
   49.9212  120.2524   -0.1679 C   0  0  0  0  0  0  0  0  0  0  0  0
   49.1730  119.7048    0.2066 C   0  0  0  0  0  0  0  0  0  0  0  0
   51.9551  121.6261    0.6478 H   0  0  0  0  0  0  0  0  0  0  0  0
   48.5154  118.3941    2.3165 C   0  0  0  0  0  0  0  0  0  0  0  0
   48.1951  117.4492    2.2486 O   0  0  0  0  0  0  0  0  0  0  0  0
   49.0110  118.6968    3.1305 N   0  0  0  0  0  0  0  0  0  0  0  0
   49.3263  119.6271    3.1973 H   0  0  0  0  0  0  0  0  0  0  0  0
   49.1863  118.0547    3.8769 C   0  0  0  0  0  0  0  0  0  0  0  0
   49.1263  118.3630    4.8262 C   0  0  0  0  0  0  0  0  0  0  0  0
   48.5464  117.8715    5.4759 O   0  0  0  0  0  0  0  0  0  0  0  0
   49.6463  119.1629    5.1260 N   0  0  0  0  0  0  0  0  0  0  0  0
   50.2172  119.6467    4.4864 H   0  0  0  0  0  0  0  0  0  0  0  0
   49.5863  119.4712    6.0753 C   0  0  0  0  0  0  0  0  0  0  0  0
   49.0881  120.3090    6.2984 C   0  0  0  0  0  0  0  0  0  0  0  0
   48.2635  120.5515    5.7872 O   0  0  0  0  0  0  0  0  0  0  0  0
   49.4144  120.9044    7.0326 N   0  0  0  0  0  0  0  0  0  0  0  0
   50.2262  120.6657    7.5358 H   0  0  0  0  0  0  0  0  0  0  0  0
   48.9161  121.7423    7.2557 C   0  0  0  0  0  0  0  0  0  0  0  0
   49.2684  122.6285    6.9550 C   0  0  0  0  0  0  0  0  0  0  0  0
   49.9746  123.0932    7.4891 O   0  0  0  0  0  0  0  0  0  0  0  0
   48.9144  123.0501    6.1201 N   0  0  0  0  0  0  0  0  0  0  0  0
   48.2192  122.5926    5.5943 H   0  0  0  0  0  0  0  0  0  0  0  0
   49.2667  123.9364    5.8194 C   0  0  0  0  0  0  0  0  0  0  0  0
   48.6585  124.7293    5.7810 C   0  0  0  0  0  0  0  0  0  0  0  0
   48.9267  125.5869    6.2198 O   0  0  0  0  0  0  0  0  0  0  0  0
   47.7820  124.6644    5.3039 N   0  0  0  0  0  0  0  0  0  0  0  0
   47.4257  123.8554    4.8365 C   0  0  0  0  0  0  0  0  0  0  0  0
   46.5315  124.0883    4.4541 C   0  0  0  0  0  0  0  0  0  0  0  0
   46.3352  125.0412    4.6853 C   0  0  0  0  0  0  0  0  0  0  0  0
   47.1081  125.3973    5.2104 C   0  0  0  0  0  0  0  0  0  0  0  0
   47.1922  126.3236    5.5777 C   0  0  0  0  0  0  0  0  0  0  0  0
   47.6683  127.0285    5.0520 O   0  0  0  0  0  0  0  0  0  0  0  0
   46.8003  126.5449    6.4707 O   0  0  0  0  0  0  0  0  0  0  0  0
   48.0355  126.8211    4.2153 H   0  0  0  0  0  0  0  0  0  0  0  0
   50.2272  124.0299    5.5571 C   0  0  0  0  0  0  0  0  0  0  0  0
   50.5087  123.8444    4.6157 S   0  0  0  0  0  0  0  0  0  0  0  0
   49.5854  123.4651    3.6920 H   0  0  0  0  0  0  0  0  0  0  0  0
   48.0656  121.6938    7.7794 C   0  0  0  0  0  0  0  0  0  0  0  0
   48.0831  121.8065    8.7728 C   0  0  0  0  0  0  0  0  0  0  0  0
   47.4241  122.3256    9.3173 C   0  0  0  0  0  0  0  0  0  0  0  0
   47.6963  122.2597   10.2772 N   0  0  0  0  0  0  0  0  0  0  0  0
   48.5236  121.6999   10.3262 C   0  0  0  0  0  0  0  0  0  0  0  0
   48.7625  121.4198    9.3964 N   0  0  0  0  0  0  0  0  0  0  0  0
   49.5318  120.8614    9.1400 H   0  0  0  0  0  0  0  0  0  0  0  0
   50.0246  118.9417    6.8016 C   0  0  0  0  0  0  0  0  0  0  0  0
   51.0121  118.7855    6.7803 C   0  0  0  0  0  0  0  0  0  0  0  0
   51.3898  117.9255    7.1234 C   0  0  0  0  0  0  0  0  0  0  0  0
   50.9128  117.4221    7.8440 O   0  0  0  0  0  0  0  0  0  0  0  0
   52.2445  117.5689    6.7461 N   0  0  0  0  0  0  0  0  0  0  0  0
   52.7140  118.0646    6.0368 H   0  0  0  0  0  0  0  0  0  0  0  0
   52.6163  116.7223    7.0840 H   0  0  0  0  0  0  0  0  0  0  0  0
   49.4215  117.1042    3.6737 C   0  0  0  0  0  0  0  0  0  0  0  0
   50.2519  116.7014    4.0588 C   0  0  0  0  0  0  0  0  0  0  0  0
   50.5087  115.7641    3.8232 C   0  0  0  0  0  0  0  0  0  0  0  0
   50.8790  115.1556    4.5250 C   0  0  0  0  0  0  0  0  0  0  0  0
   50.6359  114.1856    4.5249 N   0  0  0  0  0  0  0  0  0  0  0  0
   50.0100  113.8169    3.8088 H   0  0  0  0  0  0  0  0  0  0  0  0
   51.0137  113.5650    5.2407 H   0  0  0  0  0  0  0  0  0  0  0  0
   46.8670  119.9353    1.4236 C   0  0  0  0  0  0  0  0  0  0  0  0
   47.2408  120.6452    2.0206 O   0  0  0  0  0  0  0  0  0  0  0  0
   47.4166  119.1308    1.1985 N   0  0  0  0  0  0  0  0  0  0  0  0
   47.0486  118.4319    0.6108 H   0  0  0  0  0  0  0  0  0  0  0  0
   45.9435  120.0299    1.0519 C   0  0  0  0  0  0  0  0  0  0  0  0
   45.4958  119.1469   -0.3694 C   0  0  0  0  0  0  0  0  0  0  0  0
   45.9487  119.8332   -0.9384 O   0  0  0  0  0  0  0  0  0  0  0  0
   45.4932  119.2452    0.6258 N   0  0  0  0  0  0  0  0  0  0  0  0
   45.0473  118.5695    1.1861 H   0  0  0  0  0  0  0  0  0  0  0  0
   45.0455  118.3623   -0.7955 C   0  0  0  0  0  0  0  0  0  0  0  0
   44.0863  118.2319   -2.2317 C   0  0  0  0  0  0  0  0  0  0  0  0
   44.8738  117.8610   -2.7240 O   0  0  0  0  0  0  0  0  0  0  0  0
   44.1722  118.4826   -1.2675 N   0  0  0  0  0  0  0  0  0  0  0  0
   43.3970  118.8477   -0.7829 H   0  0  0  0  0  0  0  0  0  0  0  0
   43.2130  118.3522   -2.7038 C   0  0  0  0  0  0  0  0  0  0  0  0
   42.6836  119.1899   -2.5701 C   0  0  0  0  0  0  0  0  0  0  0  0
   42.2390  116.9427   -2.9574 C   0  0  0  0  0  0  0  0  0  0  0  0
   41.9529  116.9680   -1.9995 O   0  0  0  0  0  0  0  0  0  0  0  0
   42.8691  117.6347   -3.3095 N   0  0  0  0  0  0  0  0  0  0  0  0
   43.1508  117.6097   -4.2525 H   0  0  0  0  0  0  0  0  0  0  0  0
   41.8950  116.2251   -3.5631 C   0  0  0  0  0  0  0  0  0  0  0  0
   40.5060  115.3155   -3.0701 C   0  0  0  0  0  0  0  0  0  0  0  0
   39.9125  116.0702   -3.3496 O   0  0  0  0  0  0  0  0  0  0  0  0
   41.4972  115.3929   -3.1768 N   0  0  0  0  0  0  0  0  0  0  0  0
   42.0815  114.6499   -2.9017 H   0  0  0  0  0  0  0  0  0  0  0  0
   40.1082  114.4833   -2.6838 C   0  0  0  0  0  0  0  0  0  0  0  0
   39.1012  113.5285   -3.7203 C   0  0  0  0  0  0  0  0  0  0  0  0
   39.9137  113.1726   -4.1818 O   0  0  0  0  0  0  0  0  0  0  0  0
   39.1984  114.1839   -2.9713 N   0  0  0  0  0  0  0  0  0  0  0  0
   38.3984  114.5344   -2.5169 H   0  0  0  0  0  0  0  0  0  0  0  0
   37.7705  112.4284   -3.5814 N   0  0  0  0  0  0  0  0  0  0  0  0
   38.1913  113.2292   -4.0078 C   0  0  0  0  0  0  0  0  0  0  0  0
   36.8426  112.1230   -3.8746 H   0  0  0  0  0  0  0  0  0  0  0  0
   38.2694  111.9170   -2.8534 H   0  0  0  0  0  0  0  0  0  0  0  0
   37.7023  113.7305   -4.7216 C   0  0  0  0  0  0  0  0  0  0  0  0
   36.9459  114.3374   -4.4775 O   0  0  0  0  0  0  0  0  0  0  0  0
   37.9697  113.6250   -5.6793 C   0  0  0  0  0  0  0  0  0  0  0  0
   36.6865  114.4398   -3.5484 H   0  0  0  0  0  0  0  0  0  0  0  0
   40.6201  113.9505   -2.0100 C   0  0  0  0  0  0  0  0  0  0  0  0
   40.3348  113.9500   -1.0516 C   0  0  0  0  0  0  0  0  0  0  0  0
   40.6519  113.2286   -0.4358 C   0  0  0  0  0  0  0  0  0  0  0  0
   40.1872  112.3433   -0.4217 O   0  0  0  0  0  0  0  0  0  0  0  0
   41.4337  113.3926    0.1657 N   0  0  0  0  0  0  0  0  0  0  0  0
   41.8912  114.2642    0.1517 H   0  0  0  0  0  0  0  0  0  0  0  0
   41.7458  112.6824    0.7719 H   0  0  0  0  0  0  0  0  0  0  0  0
   41.9488  116.3398   -4.5550 C   0  0  0  0  0  0  0  0  0  0  0  0
   42.6783  115.8911   -5.0713 C   0  0  0  0  0  0  0  0  0  0  0  0
   42.4515  115.2882   -5.8362 C   0  0  0  0  0  0  0  0  0  0  0  0
   41.5472  115.3372   -6.2604 O   0  0  0  0  0  0  0  0  0  0  0  0
   43.1290  114.6363   -6.1770 N   0  0  0  0  0  0  0  0  0  0  0  0
   44.0192  114.5881   -5.7593 H   0  0  0  0  0  0  0  0  0  0  0  0
   42.9056  114.0427   -6.9300 H   0  0  0  0  0  0  0  0  0  0  0  0
   45.4686  117.4574   -0.7495 C   0  0  0  0  0  0  0  0  0  0  0  0
   46.4583  117.3734   -0.6336 O   0  0  0  0  0  0  0  0  0  0  0  0
   46.8687  116.4956   -0.5891 H   0  0  0  0  0  0  0  0  0  0  0  0
   45.4702  120.9092    1.1063 C   0  0  0  0  0  0  0  0  0  0  0  0
   44.9947  121.1700    1.9464 C   0  0  0  0  0  0  0  0  0  0  0  0
   45.4262  121.4729    2.7962 C   0  0  0  0  0  0  0  0  0  0  0  0
   44.7024  121.6638    3.4594 N   0  0  0  0  0  0  0  0  0  0  0  0
   43.8236  121.4788    3.0194 C   0  0  0  0  0  0  0  0  0  0  0  0
   44.0044  121.1736    2.0844 N   0  0  0  0  0  0  0  0  0  0  0  0
   43.3262  120.9210    1.4169 H   0  0  0  0  0  0  0  0  0  0  0  0
 95 96  1  0  0  0
 95 97  1  0  0  0
 95 98  1  0  0  0
 96 91  1  0  0  0
 96 99  1  0  0  0
 91 92  2  0  0  0
 91 93  1  0  0  0
 93 90  1  0  0  0
 93 94  1  0  0  0
 90103  1  0  0  0
 90 86  1  0  0  0
103104  1  0  0  0
104105  1  0  0  0
105106  2  0  0  0
105107  1  0  0  0
107108  1  0  0  0
107109  1  0  0  0
 86 87  2  0  0  0
 86 88  1  0  0  0
 88 85  1  0  0  0
 88 89  1  0  0  0
 85110  1  0  0  0
 85 81  1  0  0  0
110111  1  0  0  0
111112  1  0  0  0
112113  2  0  0  0
112114  1  0  0  0
114115  1  0  0  0
114116  1  0  0  0
 81 82  2  0  0  0
 81 83  1  0  0  0
 83 79  1  0  0  0
 83 84  1  0  0  0
 79 80  1  0  0  0
 79 75  1  0  0  0
 75 76  2  0  0  0
 75 77  1  0  0  0
 77 74  1  0  0  0
 77 78  1  0  0  0
 74117  1  0  0  0
 74 70  1  0  0  0
117118  1  0  0  0
118119  1  0  0  0
 70 71  2  0  0  0
 70 72  1  0  0  0
 72 69  1  0  0  0
 72 73  1  0  0  0
 69120  1  0  0  0
 69 65  1  0  0  0
120121  1  0  0  0
121125  1  0  0  0
121122  2  0  0  0
122123  1  0  0  0
123124  2  0  0  0
124125  1  0  0  0
125126  1  0  0  0
 65 66  2  0  0  0
 65 67  1  0  0  0
 67  1  1  0  0  0
 67 68  1  0  0  0
  1  2  1  0  0  0
  1 10  1  0  0  0
  2  8  2  0  0  0
  2  3  1  0  0  0
  3  4  2  0  0  0
  4  5  1  0  0  0
  5  6  1  0  0  0
  5  7  2  0  0  0
  6  9  1  0  0  0
  7  8  1  0  0  0
 10 11  2  0  0  0
 10 12  1  0  0  0
 12 14  1  0  0  0
 12 13  1  0  0  0
 14 58  1  0  0  0
 14 15  1  0  0  0
 58 59  1  0  0  0
 59 60  1  0  0  0
 60 61  1  0  0  0
 61 62  1  0  0  0
 62 63  1  0  0  0
 62 64  1  0  0  0
 15 16  2  0  0  0
 15 17  1  0  0  0
 17 19  1  0  0  0
 17 18  1  0  0  0
 19 51  1  0  0  0
 19 20  1  0  0  0
 51 52  1  0  0  0
 52 53  1  0  0  0
 53 54  2  0  0  0
 53 55  1  0  0  0
 55 56  1  0  0  0
 55 57  1  0  0  0
 20 21  2  0  0  0
 20 22  1  0  0  0
 22 24  1  0  0  0
 22 23  1  0  0  0
 24 44  1  0  0  0
 24 25  1  0  0  0
 44 45  1  0  0  0
 45 49  1  0  0  0
 45 46  2  0  0  0
 46 47  1  0  0  0
 47 48  2  0  0  0
 48 49  1  0  0  0
 49 50  1  0  0  0
 25 26  2  0  0  0
 25 27  1  0  0  0
 27 29  1  0  0  0
 27 28  1  0  0  0
 29 41  1  0  0  0
 29 30  1  0  0  0
 41 42  1  0  0  0
 42 43  1  0  0  0
 30 31  2  0  0  0
 30 32  1  0  0  0
 32 36  1  0  0  0
 32 33  1  0  0  0
 33 34  1  0  0  0
 34 35  1  0  0  0
 35 36  1  0  0  0
 36 37  1  0  0  0
 37 38  1  0  0  0
 37 39  2  0  0  0
 38 40  1  0  0  0
 99100  1  0  0  0
 99101  1  0  0  0
100102  1  0  0  0
M  END
> <minimizedAffinity>
-8.66338

$$$$



126129  0  0  0  0  0  0  0  0999 V2000
   48.2961  118.9662    1.5727 C   0  0  0  0  0  0  0  0  0  0  0  0
   49.0424  119.5128    1.1929 C   0  0  0  0  0  0  0  0  0  0  0  0
   49.6779  119.9846    1.8040 C   0  0  0  0  0  0  0  0  0  0  0  0
   50.4242  120.5312    1.4241 C   0  0  0  0  0  0  0  0  0  0  0  0
   50.5349  120.6060    0.4331 C   0  0  0  0  0  0  0  0  0  0  0  0
   51.2812  121.1526    0.0532 O   0  0  0  0  0  0  0  0  0  0  0  0
   49.8994  120.1342   -0.1781 C   0  0  0  0  0  0  0  0  0  0  0  0
   49.1532  119.5876    0.2018 C   0  0  0  0  0  0  0  0  0  0  0  0
   51.8767  121.5947    0.6259 H   0  0  0  0  0  0  0  0  0  0  0  0
   48.4721  118.3377    2.3303 C   0  0  0  0  0  0  0  0  0  0  0  0
   48.1005  117.4097    2.3068 O   0  0  0  0  0  0  0  0  0  0  0  0
   49.0199  118.6373    3.1115 N   0  0  0  0  0  0  0  0  0  0  0  0
   49.3858  119.5510    3.1347 H   0  0  0  0  0  0  0  0  0  0  0  0
   49.1959  118.0088    3.8692 C   0  0  0  0  0  0  0  0  0  0  0  0
   49.1676  118.3415    4.8118 C   0  0  0  0  0  0  0  0  0  0  0  0
   48.6599  117.8324    5.5067 O   0  0  0  0  0  0  0  0  0  0  0  0
   49.6470  119.1835    5.0594 N   0  0  0  0  0  0  0  0  0  0  0  0
   50.1468  119.6847    4.3752 H   0  0  0  0  0  0  0  0  0  0  0  0
   49.6187  119.5162    6.0020 C   0  0  0  0  0  0  0  0  0  0  0  0
   49.1002  120.3416    6.2254 C   0  0  0  0  0  0  0  0  0  0  0  0
   48.2680  120.5623    5.7168 O   0  0  0  0  0  0  0  0  0  0  0  0
   49.4140  120.9463    6.9576 N   0  0  0  0  0  0  0  0  0  0  0  0
   50.2333  120.7290    7.4583 H   0  0  0  0  0  0  0  0  0  0  0  0
   48.8955  121.7717    7.1810 C   0  0  0  0  0  0  0  0  0  0  0  0
   49.2385  122.6685    6.9018 C   0  0  0  0  0  0  0  0  0  0  0  0
   49.8930  123.1557    7.4799 O   0  0  0  0  0  0  0  0  0  0  0  0
   48.9271  123.0781    6.0443 N   0  0  0  0  0  0  0  0  0  0  0  0
   48.2828  122.5984    5.4751 H   0  0  0  0  0  0  0  0  0  0  0  0
   49.2701  123.9749    5.7650 C   0  0  0  0  0  0  0  0  0  0  0  0
   48.6553  124.7635    5.7518 C   0  0  0  0  0  0  0  0  0  0  0  0
   48.9199  125.6116    6.2108 O   0  0  0  0  0  0  0  0  0  0  0  0
   47.7758  124.7039    5.2795 N   0  0  0  0  0  0  0  0  0  0  0  0
   47.4225  123.9044    4.7937 C   0  0  0  0  0  0  0  0  0  0  0  0
   46.5237  124.1399    4.4241 C   0  0  0  0  0  0  0  0  0  0  0  0
   46.3215  125.0848    4.6815 C   0  0  0  0  0  0  0  0  0  0  0  0
   47.0954  125.4334    5.2101 C   0  0  0  0  0  0  0  0  0  0  0  0
   47.1748  126.3504    5.6008 C   0  0  0  0  0  0  0  0  0  0  0  0
   47.6272  127.0769    5.0835 O   0  0  0  0  0  0  0  0  0  0  0  0
   46.8019  126.5411    6.5089 O   0  0  0  0  0  0  0  0  0  0  0  0
   47.9766  126.8982    4.2326 H   0  0  0  0  0  0  0  0  0  0  0  0
   50.2281  124.0833    5.4990 C   0  0  0  0  0  0  0  0  0  0  0  0
   50.5332  123.7820    4.5956 S   0  0  0  0  0  0  0  0  0  0  0  0
   49.6456  123.2248    3.7289 H   0  0  0  0  0  0  0  0  0  0  0  0
   48.0340  121.7002    7.6838 C   0  0  0  0  0  0  0  0  0  0  0  0
   48.0262  121.7987    8.6789 C   0  0  0  0  0  0  0  0  0  0  0  0
   47.3738  122.3384    9.2110 C   0  0  0  0  0  0  0  0  0  0  0  0
   47.6137  122.2480   10.1775 N   0  0  0  0  0  0  0  0  0  0  0  0
   48.4144  121.6524   10.2429 C   0  0  0  0  0  0  0  0  0  0  0  0
   48.6693  121.3747    9.3165 N   0  0  0  0  0  0  0  0  0  0  0  0
   49.4213  120.7871    9.0750 H   0  0  0  0  0  0  0  0  0  0  0  0
   50.1088  119.0236    6.7211 C   0  0  0  0  0  0  0  0  0  0  0  0
   51.1085  119.0367    6.7440 C   0  0  0  0  0  0  0  0  0  0  0  0
   51.6183  118.1791    6.8112 C   0  0  0  0  0  0  0  0  0  0  0  0
   52.3639  117.9892    6.1724 O   0  0  0  0  0  0  0  0  0  0  0  0
   51.3826  117.5113    7.5173 N   0  0  0  0  0  0  0  0  0  0  0  0
   50.6485  117.6983    8.1462 H   0  0  0  0  0  0  0  0  0  0  0  0
   51.8845  116.6670    7.5835 H   0  0  0  0  0  0  0  0  0  0  0  0
   49.4003  117.0475    3.6843 C   0  0  0  0  0  0  0  0  0  0  0  0
   50.3069  116.6801    3.8922 C   0  0  0  0  0  0  0  0  0  0  0  0
   50.4634  115.6927    3.8695 C   0  0  0  0  0  0  0  0  0  0  0  0
   51.3946  115.3326    3.9256 C   0  0  0  0  0  0  0  0  0  0  0  0
   51.9646  115.5418    4.7202 N   0  0  0  0  0  0  0  0  0  0  0  0
   51.5960  116.1224    5.4736 H   0  0  0  0  0  0  0  0  0  0  0  0
   52.9144  115.1746    4.7774 H   0  0  0  0  0  0  0  0  0  0  0  0
   46.8587  119.8970    1.3132 C   0  0  0  0  0  0  0  0  0  0  0  0
   47.2658  120.6640    1.8092 O   0  0  0  0  0  0  0  0  0  0  0  0
   47.3738  119.0481    1.1950 N   0  0  0  0  0  0  0  0  0  0  0  0
   46.9731  118.2930    0.7067 H   0  0  0  0  0  0  0  0  0  0  0  0
   45.9364  119.9789    0.9355 C   0  0  0  0  0  0  0  0  0  0  0  0
   45.5018  119.1473   -0.5204 C   0  0  0  0  0  0  0  0  0  0  0  0
   45.9159  119.8789   -1.0619 O   0  0  0  0  0  0  0  0  0  0  0  0
   45.5121  119.1973    0.4783 N   0  0  0  0  0  0  0  0  0  0  0  0
   45.1045  118.4770    1.0115 H   0  0  0  0  0  0  0  0  0  0  0  0
   45.0775  118.3656   -0.9776 C   0  0  0  0  0  0  0  0  0  0  0  0
   43.6931  118.0190   -1.9589 C   0  0  0  0  0  0  0  0  0  0  0  0
   44.2939  117.7377   -2.7071 O   0  0  0  0  0  0  0  0  0  0  0  0
   44.0849  118.3330   -1.0941 N   0  0  0  0  0  0  0  0  0  0  0  0
   43.4934  118.6099   -0.3574 H   0  0  0  0  0  0  0  0  0  0  0  0
   42.7004  117.9863   -2.0754 C   0  0  0  0  0  0  0  0  0  0  0  0
   42.1560  118.8173   -1.9615 C   0  0  0  0  0  0  0  0  0  0  0  0
   41.6944  116.6510   -1.6229 C   0  0  0  0  0  0  0  0  0  0  0  0
   41.5848  117.0431   -0.7095 O   0  0  0  0  0  0  0  0  0  0  0  0
   42.2522  117.1226   -2.3058 N   0  0  0  0  0  0  0  0  0  0  0  0
   42.3601  116.7366   -3.2050 H   0  0  0  0  0  0  0  0  0  0  0  0
   41.2461  115.7873   -1.8533 C   0  0  0  0  0  0  0  0  0  0  0  0
   40.6245  115.2081   -3.3626 C   0  0  0  0  0  0  0  0  0  0  0  0
   39.7004  115.4660   -3.0810 O   0  0  0  0  0  0  0  0  0  0  0  0
   41.3974  115.3688   -2.7488 N   0  0  0  0  0  0  0  0  0  0  0  0
   42.3073  115.1149   -3.0260 H   0  0  0  0  0  0  0  0  0  0  0  0
   40.7758  114.7896   -4.2581 C   0  0  0  0  0  0  0  0  0  0  0  0
   41.9902  115.2745   -5.3939 C   0  0  0  0  0  0  0  0  0  0  0  0
   41.3485  115.9231   -5.8032 O   0  0  0  0  0  0  0  0  0  0  0  0
   41.7039  114.7077   -4.6214 N   0  0  0  0  0  0  0  0  0  0  0  0
   42.3357  114.0691   -4.2185 H   0  0  0  0  0  0  0  0  0  0  0  0
   43.1273  114.4949   -6.4425 N   0  0  0  0  0  0  0  0  0  0  0  0
   42.9184  115.1926   -5.7572 C   0  0  0  0  0  0  0  0  0  0  0  0
   44.0739  114.4113   -6.8130 H   0  0  0  0  0  0  0  0  0  0  0  0
   42.3938  113.8668   -6.7709 H   0  0  0  0  0  0  0  0  0  0  0  0
   43.6375  115.8084   -5.4353 C   0  0  0  0  0  0  0  0  0  0  0  0
   43.4095  116.7418   -5.1583 O   0  0  0  0  0  0  0  0  0  0  0  0
   44.5846  115.4907   -5.3902 C   0  0  0  0  0  0  0  0  0  0  0  0
   42.4907  117.0500   -5.2020 H   0  0  0  0  0  0  0  0  0  0  0  0
   39.9991  114.4529   -4.7904 C   0  0  0  0  0  0  0  0  0  0  0  0
   39.7475  113.4859   -4.7508 C   0  0  0  0  0  0  0  0  0  0  0  0
   39.0894  113.1133   -5.4052 C   0  0  0  0  0  0  0  0  0  0  0  0
   39.3122  113.0894   -6.3798 O   0  0  0  0  0  0  0  0  0  0  0  0
   38.2086  112.7645   -5.0850 N   0  0  0  0  0  0  0  0  0  0  0  0
   37.9894  112.7880   -4.1256 H   0  0  0  0  0  0  0  0  0  0  0  0
   37.5609  112.3977   -5.7292 H   0  0  0  0  0  0  0  0  0  0  0  0
   40.6466  115.3421   -1.1882 C   0  0  0  0  0  0  0  0  0  0  0  0
   41.0399  114.8442   -0.4152 C   0  0  0  0  0  0  0  0  0  0  0  0
   40.7816  113.8923   -0.2502 C   0  0  0  0  0  0  0  0  0  0  0  0
   39.8879  113.5577   -0.5489 O   0  0  0  0  0  0  0  0  0  0  0  0
   41.4172  113.2750    0.2136 N   0  0  0  0  0  0  0  0  0  0  0  0
   42.2971  113.6044    0.5076 H   0  0  0  0  0  0  0  0  0  0  0  0
   41.1629  112.3379    0.3761 H   0  0  0  0  0  0  0  0  0  0  0  0
   45.6459  117.6167   -1.3182 C   0  0  0  0  0  0  0  0  0  0  0  0
   46.2825  117.1522   -0.7026 O   0  0  0  0  0  0  0  0  0  0  0  0
   46.8338  116.4257   -1.0330 H   0  0  0  0  0  0  0  0  0  0  0  0
   45.4384  120.8425    1.0149 C   0  0  0  0  0  0  0  0  0  0  0  0
   45.0158  121.0978    1.8845 C   0  0  0  0  0  0  0  0  0  0  0  0
   44.0343  121.1648    2.0637 C   0  0  0  0  0  0  0  0  0  0  0  0
   43.9123  121.4393    3.0176 N   0  0  0  0  0  0  0  0  0  0  0  0
   44.8185  121.5421    3.4278 C   0  0  0  0  0  0  0  0  0  0  0  0
   45.5004  121.3310    2.7275 N   0  0  0  0  0  0  0  0  0  0  0  0
   46.4775  121.3495    2.8471 H   0  0  0  0  0  0  0  0  0  0  0  0
 95 96  1  0  0  0
 95 97  1  0  0  0
 95 98  1  0  0  0
 96 91  1  0  0  0
 96 99  1  0  0  0
 91 92  2  0  0  0
 91 93  1  0  0  0
 93 90  1  0  0  0
 93 94  1  0  0  0
 90103  1  0  0  0
 90 86  1  0  0  0
103104  1  0  0  0
104105  1  0  0  0
105106  2  0  0  0
105107  1  0  0  0
107108  1  0  0  0
107109  1  0  0  0
 86 87  2  0  0  0
 86 88  1  0  0  0
 88 85  1  0  0  0
 88 89  1  0  0  0
 85110  1  0  0  0
 85 81  1  0  0  0
110111  1  0  0  0
111112  1  0  0  0
112113  2  0  0  0
112114  1  0  0  0
114115  1  0  0  0
114116  1  0  0  0
 81 82  2  0  0  0
 81 83  1  0  0  0
 83 79  1  0  0  0
 83 84  1  0  0  0
 79 80  1  0  0  0
 79 75  1  0  0  0
 75 76  2  0  0  0
 75 77  1  0  0  0
 77 74  1  0  0  0
 77 78  1  0  0  0
 74117  1  0  0  0
 74 70  1  0  0  0
117118  1  0  0  0
118119  1  0  0  0
 70 71  2  0  0  0
 70 72  1  0  0  0
 72 69  1  0  0  0
 72 73  1  0  0  0
 69120  1  0  0  0
 69 65  1  0  0  0
120121  1  0  0  0
121125  1  0  0  0
121122  2  0  0  0
122123  1  0  0  0
123124  2  0  0  0
124125  1  0  0  0
125126  1  0  0  0
 65 66  2  0  0  0
 65 67  1  0  0  0
 67  1  1  0  0  0
 67 68  1  0  0  0
  1  2  1  0  0  0
  1 10  1  0  0  0
  2  8  2  0  0  0
  2  3  1  0  0  0
  3  4  2  0  0  0
  4  5  1  0  0  0
  5  6  1  0  0  0
  5  7  2  0  0  0
  6  9  1  0  0  0
  7  8  1  0  0  0
 10 11  2  0  0  0
 10 12  1  0  0  0
 12 14  1  0  0  0
 12 13  1  0  0  0
 14 58  1  0  0  0
 14 15  1  0  0  0
 58 59  1  0  0  0
 59 60  1  0  0  0
 60 61  1  0  0  0
 61 62  1  0  0  0
 62 63  1  0  0  0
 62 64  1  0  0  0
 15 16  2  0  0  0
 15 17  1  0  0  0
 17 19  1  0  0  0
 17 18  1  0  0  0
 19 51  1  0  0  0
 19 20  1  0  0  0
 51 52  1  0  0  0
 52 53  1  0  0  0
 53 54  2  0  0  0
 53 55  1  0  0  0
 55 56  1  0  0  0
 55 57  1  0  0  0
 20 21  2  0  0  0
 20 22  1  0  0  0
 22 24  1  0  0  0
 22 23  1  0  0  0
 24 44  1  0  0  0
 24 25  1  0  0  0
 44 45  1  0  0  0
 45 49  1  0  0  0
 45 46  2  0  0  0
 46 47  1  0  0  0
 47 48  2  0  0  0
 48 49  1  0  0  0
 49 50  1  0  0  0
 25 26  2  0  0  0
 25 27  1  0  0  0
 27 29  1  0  0  0
 27 28  1  0  0  0
 29 41  1  0  0  0
 29 30  1  0  0  0
 41 42  1  0  0  0
 42 43  1  0  0  0
 30 31  2  0  0  0
 30 32  1  0  0  0
 32 36  1  0  0  0
 32 33  1  0  0  0
 33 34  1  0  0  0
 34 35  1  0  0  0
 35 36  1  0  0  0
 36 37  1  0  0  0
 37 38  1  0  0  0
 37 39  2  0  0  0
 38 40  1  0  0  0
 99100  1  0  0  0
 99101  1  0  0  0
100102  1  0  0  0
M  END
> <minimizedAffinity>
-8.62831

$$$$
