REMARK  Name = STI
REMARK  6 active torsions:
REMARK  status: ('A' for Active; 'I' for Inactive)
REMARK    1  A    between atoms: C_3  and  C_7
REMARK    2  A    between atoms: N_13  and  C_14
REMARK    3  A    between atoms: C_18  and  N_20
REMARK    4  A    between atoms: C_21  and  C_22
REMARK    5  A    between atoms: C_25  and  C_28
REMARK    6  A    between atoms: C_28  and  N_29
REMARK                            x       y       z     vdW  Elec       q    Type
REMARK                         _______ _______ _______ _____ _____    ______ ____
ROOT
ATOM     14  C   UNL     1      15.822  54.641  12.322  0.00  0.00    +0.000 A 
ATOM     15  C   UNL     1      16.950  54.502  11.393  0.00  0.00    +0.000 A 
ATOM     16  C   UNL     1      17.915  53.471  11.648  0.00  0.00    +0.000 A 
ATOM     17  C   UNL     1      17.774  52.597  12.786  0.00  0.00    +0.000 A 
ATOM     18  C   UNL     1      16.678  52.727  13.688  0.00  0.00    +0.000 A 
ATOM     19  C   UNL     1      15.698  53.772  13.436  0.00  0.00    +0.000 A 
ATOM     37  C   UNL     1      17.148  55.406  10.154  0.00  0.00    +0.000 C 
ENDROOT
BRANCH  14  13
ATOM      7  C   UNL     1      14.238  59.155  12.712  0.00  0.00    +0.000 A 
ATOM      8  C   UNL     1      15.433  59.579  13.383  0.00  0.00    +0.000 A 
ATOM      9  C   UNL     1      16.428  58.603  13.615  0.00  0.00    +0.000 A 
ATOM     10  N   UNL     1      16.232  57.303  13.202  0.00  0.00    +0.000 NA
ATOM     11  C   UNL     1      15.067  56.927  12.559  0.00  0.00    +0.000 A 
ATOM     12  N   UNL     1      14.101  57.840  12.327  0.00  0.00    +0.000 NA
ATOM     13  N   UNL     1      14.852  55.627  12.128  0.00  0.00    +0.000 NA
BRANCH   7   3
ATOM      1  C   UNL     1      11.879  62.272  12.570  0.00  0.00    +0.000 A 
ATOM      2  C   UNL     1      13.002  61.429  12.910  0.00  0.00    +0.000 A 
ATOM      3  C   UNL     1      13.097  60.070  12.392  0.00  0.00    +0.000 A 
ATOM      4  C   UNL     1      12.031  59.591  11.525  0.00  0.00    +0.000 A 
ATOM      5  N   UNL     1      10.961  60.425  11.216  0.00  0.00    +0.000 NA
ATOM      6  C   UNL     1      10.858  61.734  11.710  0.00  0.00    +0.000 A 
ENDBRANCH   7   3
ENDBRANCH  14  13
BRANCH  18  20
ATOM     20  N   UNL     1      16.600  51.810  14.798  0.00  0.00    +0.000 NA
ATOM     21  C   UNL     1      15.629  51.747  15.784  0.00  0.00    +0.000 C 
ATOM     36  O   UNL     1      14.789  52.612  15.983  0.00  0.00    +0.000 OA
BRANCH  21  22
ATOM     22  C   UNL     1      15.595  50.558  16.689  0.00  0.00    +0.000 A 
ATOM     23  C   UNL     1      14.423  50.268  17.519  0.00  0.00    +0.000 A 
ATOM     24  C   UNL     1      14.423  49.124  18.396  0.00  0.00    +0.000 A 
ATOM     25  C   UNL     1      15.600  48.260  18.446  0.00  0.00    +0.000 A 
ATOM     26  C   UNL     1      16.747  48.568  17.608  0.00  0.00    +0.000 A 
ATOM     27  C   UNL     1      16.751  49.689  16.748  0.00  0.00    +0.000 A 
BRANCH  25  28
ATOM     28  C   UNL     1      15.696  47.030  19.368  0.00  0.00    +0.000 C 
BRANCH  28  29
ATOM     29  N   UNL     1      16.917  46.907  20.219  0.00  0.00    +0.000 NA
ATOM     30  C   UNL     1      17.097  48.140  21.070  0.00  0.00    +0.000 C 
ATOM     31  C   UNL     1      18.375  48.041  21.949  0.00  0.00    +0.000 C 
ATOM     32  N   UNL     1      18.337  46.794  22.821  0.00  0.00    +0.000 NA
ATOM     33  C   UNL     1      19.522  46.655  23.680  0.00  0.00    +0.000 C 
ATOM     34  C   UNL     1      18.172  45.533  21.971  0.00  0.00    +0.000 C 
ATOM     35  C   UNL     1      16.877  45.658  21.104  0.00  0.00    +0.000 C 
ENDBRANCH  28  29
ENDBRANCH  25  28
ENDBRANCH  21  22
ENDBRANCH  18  20
TORSDOF 6
