


126129  0  0  0  0  0  0  0  0999 V2000
  170.1352  245.6269  214.2278 C   0  0  0  0  0  0  0  0  0  0  0  0
  169.4587  245.6841  214.9621 C   0  0  0  0  0  0  0  0  0  0  0  0
  168.8749  246.4921  215.0422 C   0  0  0  0  0  0  0  0  0  0  0  0
  168.1984  246.5493  215.7765 C   0  0  0  0  0  0  0  0  0  0  0  0
  168.1057  245.7985  216.4306 C   0  0  0  0  0  0  0  0  0  0  0  0
  167.4292  245.8558  217.1648 O   0  0  0  0  0  0  0  0  0  0  0  0
  168.6895  244.9906  216.3504 C   0  0  0  0  0  0  0  0  0  0  0  0
  169.3660  244.9334  215.6162 C   0  0  0  0  0  0  0  0  0  0  0  0
  166.8822  246.6128  217.2399 H   0  0  0  0  0  0  0  0  0  0  0  0
  171.0288  246.0624  214.3363 C   0  0  0  0  0  0  0  0  0  0  0  0
  171.0884  247.0463  214.5046 O   0  0  0  0  0  0  0  0  0  0  0  0
  171.8628  245.5139  214.2765 N   0  0  0  0  0  0  0  0  0  0  0  0
  171.8041  244.5453  214.1109 H   0  0  0  0  0  0  0  0  0  0  0  0
  172.7565  245.9494  214.3850 C   0  0  0  0  0  0  0  0  0  0  0  0
  173.2530  246.2788  213.5819 C   0  0  0  0  0  0  0  0  0  0  0  0
  173.2511  245.7422  212.7381 O   0  0  0  0  0  0  0  0  0  0  0  0
  173.7515  247.1447  213.6226 N   0  0  0  0  0  0  0  0  0  0  0  0
  173.7534  247.6730  214.4533 H   0  0  0  0  0  0  0  0  0  0  0  0
  174.2480  247.4741  212.8195 C   0  0  0  0  0  0  0  0  0  0  0  0
  175.2403  247.3633  212.7650 C   0  0  0  0  0  0  0  0  0  0  0  0
  175.7675  247.8974  212.1041 O   0  0  0  0  0  0  0  0  0  0  0  0
  175.7055  246.7184  213.3715 N   0  0  0  0  0  0  0  0  0  0  0  0
  175.1865  246.1926  214.0221 H   0  0  0  0  0  0  0  0  0  0  0  0
  176.6979  246.6076  213.3170 C   0  0  0  0  0  0  0  0  0  0  0  0
  177.2894  247.0680  213.9789 C   0  0  0  0  0  0  0  0  0  0  0  0
  178.2558  247.2150  213.7682 O   0  0  0  0  0  0  0  0  0  0  0  0
  176.9145  247.3814  214.8513 N   0  0  0  0  0  0  0  0  0  0  0  0
  175.9631  247.2367  215.0587 H   0  0  0  0  0  0  0  0  0  0  0  0
  177.5061  247.8418  215.5132 C   0  0  0  0  0  0  0  0  0  0  0  0
  177.5009  247.5566  216.4717 C   0  0  0  0  0  0  0  0  0  0  0  0
  176.6572  247.6129  217.0055 O   0  0  0  0  0  0  0  0  0  0  0  0
  178.3395  247.2151  216.8962 N   0  0  0  0  0  0  0  0  0  0  0  0
  179.2288  247.1213  216.4487 C   0  0  0  0  0  0  0  0  0  0  0  0
  179.8748  246.7556  217.1188 C   0  0  0  0  0  0  0  0  0  0  0  0
  179.3847  246.6235  217.9804 C   0  0  0  0  0  0  0  0  0  0  0  0
  178.4358  246.9075  217.8428 C   0  0  0  0  0  0  0  0  0  0  0  0
  177.7106  246.8873  218.5310 C   0  0  0  0  0  0  0  0  0  0  0  0
  177.5279  247.6970  219.0887 O   0  0  0  0  0  0  0  0  0  0  0  0
  177.1681  246.0574  218.6616 O   0  0  0  0  0  0  0  0  0  0  0  0
  178.0362  248.4746  218.9664 H   0  0  0  0  0  0  0  0  0  0  0  0
  178.1028  248.5875  215.2166 C   0  0  0  0  0  0  0  0  0  0  0  0
  177.7668  249.5293  215.2224 S   0  0  0  0  0  0  0  0  0  0  0  0
  176.4982  249.7962  215.6335 H   0  0  0  0  0  0  0  0  0  0  0  0
  177.0986  246.0365  212.6007 C   0  0  0  0  0  0  0  0  0  0  0  0
  176.9543  245.0470  212.6108 C   0  0  0  0  0  0  0  0  0  0  0  0
  176.6195  244.4939  211.8479 C   0  0  0  0  0  0  0  0  0  0  0  0
  176.5777  243.5420  212.1512 N   0  0  0  0  0  0  0  0  0  0  0  0
  176.8867  243.5067  213.1017 C   0  0  0  0  0  0  0  0  0  0  0  0
  177.1195  244.4369  213.3857 N   0  0  0  0  0  0  0  0  0  0  0  0
  177.4527  244.7048  214.2725 H   0  0  0  0  0  0  0  0  0  0  0  0
  173.7522  247.9142  212.0708 C   0  0  0  0  0  0  0  0  0  0  0  0
  173.2483  248.7622  212.2352 C   0  0  0  0  0  0  0  0  0  0  0  0
  172.5360  249.0524  211.5962 C   0  0  0  0  0  0  0  0  0  0  0  0
  172.7837  249.3602  210.6774 O   0  0  0  0  0  0  0  0  0  0  0  0
  171.5760  249.0349  211.8758 N   0  0  0  0  0  0  0  0  0  0  0  0
  171.3323  248.7319  212.7802 H   0  0  0  0  0  0  0  0  0  0  0  0
  170.8748  249.3206  211.2466 H   0  0  0  0  0  0  0  0  0  0  0  0
  173.1537  246.0555  215.2966 C   0  0  0  0  0  0  0  0  0  0  0  0
  173.5182  245.2589  215.7790 C   0  0  0  0  0  0  0  0  0  0  0  0
  174.3979  245.3194  216.2506 C   0  0  0  0  0  0  0  0  0  0  0  0
  174.9994  244.5216  216.2911 C   0  0  0  0  0  0  0  0  0  0  0  0
  175.9900  244.6447  216.3510 N   0  0  0  0  0  0  0  0  0  0  0  0
  176.3869  245.5841  216.3707 H   0  0  0  0  0  0  0  0  0  0  0  0
  176.6035  243.8309  216.3923 H   0  0  0  0  0  0  0  0  0  0  0  0
  169.7194  245.6413  212.5465 C   0  0  0  0  0  0  0  0  0  0  0  0
  169.7379  246.6412  212.5505 O   0  0  0  0  0  0  0  0  0  0  0  0
  169.9180  245.1342  213.3852 N   0  0  0  0  0  0  0  0  0  0  0  0
  169.8999  244.1499  213.3813 H   0  0  0  0  0  0  0  0  0  0  0  0
  169.5023  245.1486  211.7038 C   0  0  0  0  0  0  0  0  0  0  0  0
  168.1773  244.0331  211.7050 C   0  0  0  0  0  0  0  0  0  0  0  0
  167.5356  244.7952  211.6191 O   0  0  0  0  0  0  0  0  0  0  0  0
  169.1606  244.2098  211.7474 N   0  0  0  0  0  0  0  0  0  0  0  0
  169.7925  243.4595  211.8321 H   0  0  0  0  0  0  0  0  0  0  0  0
  167.8357  243.0943  211.7486 C   0  0  0  0  0  0  0  0  0  0  0  0
  167.5123  241.9933  210.4513 C   0  0  0  0  0  0  0  0  0  0  0  0
  166.5467  242.2523  210.4721 O   0  0  0  0  0  0  0  0  0  0  0  0
  168.1568  242.4142  211.0895 N   0  0  0  0  0  0  0  0  0  0  0  0
  169.1074  242.1592  211.0691 H   0  0  0  0  0  0  0  0  0  0  0  0
  167.8334  241.3132  209.7922 C   0  0  0  0  0  0  0  0  0  0  0  0
  167.6378  241.4293  208.8184 C   0  0  0  0  0  0  0  0  0  0  0  0
  169.2322  240.2969  209.6902 C   0  0  0  0  0  0  0  0  0  0  0  0
  169.5974  240.8730  208.9589 O   0  0  0  0  0  0  0  0  0  0  0  0
  168.3502  240.5170  210.1068 N   0  0  0  0  0  0  0  0  0  0  0  0
  167.9907  239.9499  210.8268 H   0  0  0  0  0  0  0  0  0  0  0  0
  169.7491  239.5007  210.0049 C   0  0  0  0  0  0  0  0  0  0  0  0
  170.9332  239.7997  211.2330 C   0  0  0  0  0  0  0  0  0  0  0  0
  170.2051  239.8961  211.9116 O   0  0  0  0  0  0  0  0  0  0  0  0
  170.7052  239.6020  210.2796 N   0  0  0  0  0  0  0  0  0  0  0  0
  171.4221  239.5071  209.6116 H   0  0  0  0  0  0  0  0  0  0  0  0
  171.8894  239.9010  211.5078 C   0  0  0  0  0  0  0  0  0  0  0  0
  172.6947  241.3099  210.9025 C   0  0  0  0  0  0  0  0  0  0  0  0
  172.1840  241.8788  211.5470 O   0  0  0  0  0  0  0  0  0  0  0  0
  172.5474  240.3210  210.8829 N   0  0  0  0  0  0  0  0  0  0  0  0
  173.0502  239.7609  210.2483 H   0  0  0  0  0  0  0  0  0  0  0  0
  174.2121  242.0998  210.6308 N   0  0  0  0  0  0  0  0  0  0  0  0
  173.3528  241.7299  210.2775 C   0  0  0  0  0  0  0  0  0  0  0  0
  174.8833  242.5281  209.9934 H   0  0  0  0  0  0  0  0  0  0  0  0
  174.4173  242.0486  211.6287 H   0  0  0  0  0  0  0  0  0  0  0  0
  173.1516  241.7801  209.2992 C   0  0  0  0  0  0  0  0  0  0  0  0
  172.2856  242.1700  208.9862 O   0  0  0  0  0  0  0  0  0  0  0  0
  173.8163  241.4403  208.6340 C   0  0  0  0  0  0  0  0  0  0  0  0
  171.6407  242.4997  209.6316 H   0  0  0  0  0  0  0  0  0  0  0  0
  172.1875  239.5824  212.4075 C   0  0  0  0  0  0  0  0  0  0  0  0
  172.4964  238.6388  212.5266 C   0  0  0  0  0  0  0  0  0  0  0  0
  173.1387  238.4115  213.2587 C   0  0  0  0  0  0  0  0  0  0  0  0
  174.0709  238.7727  213.2359 O   0  0  0  0  0  0  0  0  0  0  0  0
  172.8487  237.8231  214.0135 N   0  0  0  0  0  0  0  0  0  0  0  0
  171.9310  237.4676  214.0358 H   0  0  0  0  0  0  0  0  0  0  0  0
  173.4811  237.5994  214.7341 H   0  0  0  0  0  0  0  0  0  0  0  0
  169.3098  238.6033  210.0447 C   0  0  0  0  0  0  0  0  0  0  0  0
  169.6090  237.8725  209.4312 C   0  0  0  0  0  0  0  0  0  0  0  0
  169.4284  236.9174  209.6659 C   0  0  0  0  0  0  0  0  0  0  0  0
  168.4895  236.6089  209.8187 O   0  0  0  0  0  0  0  0  0  0  0  0
  170.1868  236.2706  209.7478 N   0  0  0  0  0  0  0  0  0  0  0  0
  171.1111  236.5743  209.5974 H   0  0  0  0  0  0  0  0  0  0  0  0
  170.0090  235.3302  209.9789 H   0  0  0  0  0  0  0  0  0  0  0  0
  167.1729  242.8355  212.4513 C   0  0  0  0  0  0  0  0  0  0  0  0
  167.4717  242.7053  213.3967 O   0  0  0  0  0  0  0  0  0  0  0  0
  166.8287  242.4543  214.0783 H   0  0  0  0  0  0  0  0  0  0  0  0
  169.6268  245.5948  210.8175 C   0  0  0  0  0  0  0  0  0  0  0  0
  170.5235  245.5862  210.3750 C   0  0  0  0  0  0  0  0  0  0  0  0
  170.8737  246.2776  209.7431 C   0  0  0  0  0  0  0  0  0  0  0  0
  171.7941  246.0035  209.4642 N   0  0  0  0  0  0  0  0  0  0  0  0
  172.0127  245.1426  209.9239 C   0  0  0  0  0  0  0  0  0  0  0  0
  171.2274  244.8848  210.4867 N   0  0  0  0  0  0  0  0  0  0  0  0
  171.1592  244.0814  211.0517 H   0  0  0  0  0  0  0  0  0  0  0  0
 95 96  1  0  0  0
 95 97  1  0  0  0
 95 98  1  0  0  0
 96 91  1  0  0  0
 96 99  1  0  0  0
 91 92  2  0  0  0
 91 93  1  0  0  0
 93 90  1  0  0  0
 93 94  1  0  0  0
 90103  1  0  0  0
 90 86  1  0  0  0
103104  1  0  0  0
104105  1  0  0  0
105106  2  0  0  0
105107  1  0  0  0
107108  1  0  0  0
107109  1  0  0  0
 86 87  2  0  0  0
 86 88  1  0  0  0
 88 85  1  0  0  0
 88 89  1  0  0  0
 85110  1  0  0  0
 85 81  1  0  0  0
110111  1  0  0  0
111112  1  0  0  0
112113  2  0  0  0
112114  1  0  0  0
114115  1  0  0  0
114116  1  0  0  0
 81 82  2  0  0  0
 81 83  1  0  0  0
 83 79  1  0  0  0
 83 84  1  0  0  0
 79 80  1  0  0  0
 79 75  1  0  0  0
 75 76  2  0  0  0
 75 77  1  0  0  0
 77 74  1  0  0  0
 77 78  1  0  0  0
 74117  1  0  0  0
 74 70  1  0  0  0
117118  1  0  0  0
118119  1  0  0  0
 70 71  2  0  0  0
 70 72  1  0  0  0
 72 69  1  0  0  0
 72 73  1  0  0  0
 69120  1  0  0  0
 69 65  1  0  0  0
120121  1  0  0  0
121125  1  0  0  0
121122  2  0  0  0
122123  1  0  0  0
123124  2  0  0  0
124125  1  0  0  0
125126  1  0  0  0
 65 66  2  0  0  0
 65 67  1  0  0  0
 67  1  1  0  0  0
 67 68  1  0  0  0
  1  2  1  0  0  0
  1 10  1  0  0  0
  2  8  2  0  0  0
  2  3  1  0  0  0
  3  4  2  0  0  0
  4  5  1  0  0  0
  5  6  1  0  0  0
  5  7  2  0  0  0
  6  9  1  0  0  0
  7  8  1  0  0  0
 10 11  2  0  0  0
 10 12  1  0  0  0
 12 14  1  0  0  0
 12 13  1  0  0  0
 14 58  1  0  0  0
 14 15  1  0  0  0
 58 59  1  0  0  0
 59 60  1  0  0  0
 60 61  1  0  0  0
 61 62  1  0  0  0
 62 63  1  0  0  0
 62 64  1  0  0  0
 15 16  2  0  0  0
 15 17  1  0  0  0
 17 19  1  0  0  0
 17 18  1  0  0  0
 19 51  1  0  0  0
 19 20  1  0  0  0
 51 52  1  0  0  0
 52 53  1  0  0  0
 53 54  2  0  0  0
 53 55  1  0  0  0
 55 56  1  0  0  0
 55 57  1  0  0  0
 20 21  2  0  0  0
 20 22  1  0  0  0
 22 24  1  0  0  0
 22 23  1  0  0  0
 24 44  1  0  0  0
 24 25  1  0  0  0
 44 45  1  0  0  0
 45 49  1  0  0  0
 45 46  2  0  0  0
 46 47  1  0  0  0
 47 48  2  0  0  0
 48 49  1  0  0  0
 49 50  1  0  0  0
 25 26  2  0  0  0
 25 27  1  0  0  0
 27 29  1  0  0  0
 27 28  1  0  0  0
 29 41  1  0  0  0
 29 30  1  0  0  0
 41 42  1  0  0  0
 42 43  1  0  0  0
 30 31  2  0  0  0
 30 32  1  0  0  0
 32 36  1  0  0  0
 32 33  1  0  0  0
 33 34  1  0  0  0
 34 35  1  0  0  0
 35 36  1  0  0  0
 36 37  1  0  0  0
 37 38  1  0  0  0
 37 39  2  0  0  0
 38 40  1  0  0  0
 99100  1  0  0  0
 99101  1  0  0  0
100102  1  0  0  0
M  END
> <minimizedAffinity>
-8.66372

$$$$



126129  0  0  0  0  0  0  0  0999 V2000
  171.8055  245.7706  212.5840 C   0  0  0  0  0  0  0  0  0  0  0  0
  171.5937  246.5331  213.1953 C   0  0  0  0  0  0  0  0  0  0  0  0
  170.6465  246.8310  213.3133 C   0  0  0  0  0  0  0  0  0  0  0  0
  170.4347  247.5936  213.9247 C   0  0  0  0  0  0  0  0  0  0  0  0
  171.1701  248.0581  214.4180 C   0  0  0  0  0  0  0  0  0  0  0  0
  170.9583  248.8206  215.0293 O   0  0  0  0  0  0  0  0  0  0  0  0
  172.1174  247.7601  214.2999 C   0  0  0  0  0  0  0  0  0  0  0  0
  172.3292  246.9976  213.6886 C   0  0  0  0  0  0  0  0  0  0  0  0
  170.0708  249.0998  215.1399 H   0  0  0  0  0  0  0  0  0  0  0  0
  171.4895  244.8484  212.8068 C   0  0  0  0  0  0  0  0  0  0  0  0
  172.0252  244.2716  213.4235 O   0  0  0  0  0  0  0  0  0  0  0  0
  170.6377  244.5030  212.4130 N   0  0  0  0  0  0  0  0  0  0  0  0
  170.1102  245.0709  211.8059 H   0  0  0  0  0  0  0  0  0  0  0  0
  170.3215  243.5808  212.6359 C   0  0  0  0  0  0  0  0  0  0  0  0
  170.4882  242.8277  211.9995 C   0  0  0  0  0  0  0  0  0  0  0  0
  170.3958  242.9754  211.0148 O   0  0  0  0  0  0  0  0  0  0  0  0
  170.7472  241.9268  212.3478 N   0  0  0  0  0  0  0  0  0  0  0  0
  170.8382  241.7814  213.3172 H   0  0  0  0  0  0  0  0  0  0  0  0
  170.9139  241.1737  211.7114 C   0  0  0  0  0  0  0  0  0  0  0  0
  170.1848  240.5202  211.5082 C   0  0  0  0  0  0  0  0  0  0  0  0
  169.6966  240.0677  212.2545 O   0  0  0  0  0  0  0  0  0  0  0  0
  169.9438  240.3191  210.5587 N   0  0  0  0  0  0  0  0  0  0  0  0
  170.4245  240.7645  209.8239 H   0  0  0  0  0  0  0  0  0  0  0  0
  169.2147  239.6656  210.3554 C   0  0  0  0  0  0  0  0  0  0  0  0
  169.4324  238.6984  210.2244 C   0  0  0  0  0  0  0  0  0  0  0  0
  168.7519  237.9988  210.4420 O   0  0  0  0  0  0  0  0  0  0  0  0
  170.3306  238.4309  209.8757 N   0  0  0  0  0  0  0  0  0  0  0  0
  171.0006  239.1197  209.6614 H   0  0  0  0  0  0  0  0  0  0  0  0
  170.5483  237.4637  209.7446 C   0  0  0  0  0  0  0  0  0  0  0  0
  171.3587  237.0703  210.1787 C   0  0  0  0  0  0  0  0  0  0  0  0
  172.2706  237.3775  209.9065 O   0  0  0  0  0  0  0  0  0  0  0  0
  171.2572  236.3696  210.8850 N   0  0  0  0  0  0  0  0  0  0  0  0
  170.3931  235.9981  211.2245 C   0  0  0  0  0  0  0  0  0  0  0  0
  170.6040  235.3164  211.9251 C   0  0  0  0  0  0  0  0  0  0  0  0
  171.5983  235.2667  212.0185 C   0  0  0  0  0  0  0  0  0  0  0  0
  172.0021  235.9176  211.3757 C   0  0  0  0  0  0  0  0  0  0  0  0
  172.9791  236.0867  211.2464 C   0  0  0  0  0  0  0  0  0  0  0  0
  173.4428  236.7832  211.7941 O   0  0  0  0  0  0  0  0  0  0  0  0
  173.4925  235.5595  210.5693 O   0  0  0  0  0  0  0  0  0  0  0  0
  172.9617  237.2772  212.4285 H   0  0  0  0  0  0  0  0  0  0  0  0
  169.9555  236.8899  209.1794 C   0  0  0  0  0  0  0  0  0  0  0  0
  170.1614  236.7613  208.2093 S   0  0  0  0  0  0  0  0  0  0  0  0
  171.2476  237.3667  207.6586 H   0  0  0  0  0  0  0  0  0  0  0  0
  168.2679  239.9792  210.2833 C   0  0  0  0  0  0  0  0  0  0  0  0
  168.0172  240.6577  209.5928 C   0  0  0  0  0  0  0  0  0  0  0  0
  167.5675  241.5340  209.7658 C   0  0  0  0  0  0  0  0  0  0  0  0
  167.4445  241.9969  208.8880 N   0  0  0  0  0  0  0  0  0  0  0  0
  167.8182  241.4067  208.1724 C   0  0  0  0  0  0  0  0  0  0  0  0
  168.1721  240.5790  208.6080 N   0  0  0  0  0  0  0  0  0  0  0  0
  168.5983  239.8200  208.1481 H   0  0  0  0  0  0  0  0  0  0  0  0
  171.8097  241.0740  211.2782 C   0  0  0  0  0  0  0  0  0  0  0  0
  172.5568  240.6284  211.7714 C   0  0  0  0  0  0  0  0  0  0  0  0
  173.3202  240.2266  211.2657 C   0  0  0  0  0  0  0  0  0  0  0  0
  173.9629  239.6178  211.7309 O   0  0  0  0  0  0  0  0  0  0  0  0
  173.4410  240.4336  210.2949 N   0  0  0  0  0  0  0  0  0  0  0  0
  172.8082  241.0329  209.8369 H   0  0  0  0  0  0  0  0  0  0  0  0
  174.1926  240.0380  209.7970 H   0  0  0  0  0  0  0  0  0  0  0  0
  169.8387  243.4118  213.4952 C   0  0  0  0  0  0  0  0  0  0  0  0
  168.8556  243.5835  213.5584 C   0  0  0  0  0  0  0  0  0  0  0  0
  168.3821  243.4631  214.4310 C   0  0  0  0  0  0  0  0  0  0  0  0
  167.3969  243.2923  214.4459 C   0  0  0  0  0  0  0  0  0  0  0  0
  167.0015  242.7075  215.1541 N   0  0  0  0  0  0  0  0  0  0  0  0
  167.6031  242.2851  215.8613 H   0  0  0  0  0  0  0  0  0  0  0  0
  165.9966  242.5334  215.1693 H   0  0  0  0  0  0  0  0  0  0  0  0
  171.8653  246.1786  210.9018 C   0  0  0  0  0  0  0  0  0  0  0  0
  170.8693  246.2674  210.8879 O   0  0  0  0  0  0  0  0  0  0  0  0
  172.3334  245.9302  211.7498 N   0  0  0  0  0  0  0  0  0  0  0  0
  173.3139  245.8429  211.7635 H   0  0  0  0  0  0  0  0  0  0  0  0
  172.3932  246.3383  210.0676 C   0  0  0  0  0  0  0  0  0  0  0  0
  173.3153  247.8008  209.9645 C   0  0  0  0  0  0  0  0  0  0  0  0
  172.4800  248.3136  209.7663 O   0  0  0  0  0  0  0  0  0  0  0  0
  173.2719  246.8132  210.1151 N   0  0  0  0  0  0  0  0  0  0  0  0
  174.0943  246.3083  210.3103 H   0  0  0  0  0  0  0  0  0  0  0  0
  174.1941  248.2757  210.0121 C   0  0  0  0  0  0  0  0  0  0  0  0
  174.8943  248.5045  211.5797 C   0  0  0  0  0  0  0  0  0  0  0  0
  174.2523  249.2502  211.7575 O   0  0  0  0  0  0  0  0  0  0  0  0
  174.8652  248.0172  210.7069 N   0  0  0  0  0  0  0  0  0  0  0  0
  175.4972  247.2830  210.5317 H   0  0  0  0  0  0  0  0  0  0  0  0
  175.5654  248.2460  212.2745 C   0  0  0  0  0  0  0  0  0  0  0  0
  176.0779  248.9528  212.7620 C   0  0  0  0  0  0  0  0  0  0  0  0
  176.4498  247.0185  213.1177 C   0  0  0  0  0  0  0  0  0  0  0  0
  177.0171  247.7217  213.5463 O   0  0  0  0  0  0  0  0  0  0  0  0
  175.7239  247.2806  212.4818 N   0  0  0  0  0  0  0  0  0  0  0  0
  175.1654  246.5883  212.0599 H   0  0  0  0  0  0  0  0  0  0  0  0
  176.6083  246.0531  213.3251 C   0  0  0  0  0  0  0  0  0  0  0  0
  177.1503  245.1158  211.9732 C   0  0  0  0  0  0  0  0  0  0  0  0
  178.0399  245.5706  212.0145 O   0  0  0  0  0  0  0  0  0  0  0  0
  176.4345  245.3570  212.6285 N   0  0  0  0  0  0  0  0  0  0  0  0
  175.5587  244.9092  212.5880 H   0  0  0  0  0  0  0  0  0  0  0  0
  176.9765  244.4196  211.2767 C   0  0  0  0  0  0  0  0  0  0  0  0
  176.4241  244.9584  209.7260 C   0  0  0  0  0  0  0  0  0  0  0  0
  175.5076  245.0979  210.1009 O   0  0  0  0  0  0  0  0  0  0  0  0
  177.1585  244.6193  210.3139 N   0  0  0  0  0  0  0  0  0  0  0  0
  178.0609  244.4820  209.9448 H   0  0  0  0  0  0  0  0  0  0  0  0
  176.5078  246.0919  208.4189 N   0  0  0  0  0  0  0  0  0  0  0  0
  176.6062  245.1581  208.7632 C   0  0  0  0  0  0  0  0  0  0  0  0
  176.6935  246.2956  207.4369 H   0  0  0  0  0  0  0  0  0  0  0  0
  176.2218  246.8406  209.0499 H   0  0  0  0  0  0  0  0  0  0  0  0
  176.8866  244.4241  208.1446 C   0  0  0  0  0  0  0  0  0  0  0  0
  176.2498  243.6851  207.9246 O   0  0  0  0  0  0  0  0  0  0  0  0
  177.8037  244.4292  207.7462 C   0  0  0  0  0  0  0  0  0  0  0  0
  175.3602  243.6803  208.3112 H   0  0  0  0  0  0  0  0  0  0  0  0
  176.6206  243.5238  211.5429 C   0  0  0  0  0  0  0  0  0  0  0  0
  177.1563  242.6991  211.3617 C   0  0  0  0  0  0  0  0  0  0  0  0
  176.6937  241.8246  211.2151 C   0  0  0  0  0  0  0  0  0  0  0  0
  176.4126  241.5558  210.2939 O   0  0  0  0  0  0  0  0  0  0  0  0
  176.5124  241.2190  211.9899 N   0  0  0  0  0  0  0  0  0  0  0  0
  176.7891  241.4836  212.8969 H   0  0  0  0  0  0  0  0  0  0  0  0
  176.0571  240.3581  211.8457 H   0  0  0  0  0  0  0  0  0  0  0  0
  176.9407  245.7839  214.2290 C   0  0  0  0  0  0  0  0  0  0  0  0
  176.2939  245.4878  214.9318 C   0  0  0  0  0  0  0  0  0  0  0  0
  176.6219  245.2573  215.8479 C   0  0  0  0  0  0  0  0  0  0  0  0
  176.3966  244.3704  216.2512 O   0  0  0  0  0  0  0  0  0  0  0  0
  177.1752  245.9137  216.3608 N   0  0  0  0  0  0  0  0  0  0  0  0
  177.3971  246.7868  215.9638 H   0  0  0  0  0  0  0  0  0  0  0  0
  177.4981  245.6867  217.2628 H   0  0  0  0  0  0  0  0  0  0  0  0
  174.4017  249.0091  209.3648 C   0  0  0  0  0  0  0  0  0  0  0  0
  174.8945  248.8048  208.5189 O   0  0  0  0  0  0  0  0  0  0  0  0
  175.0959  249.5163  207.8911 H   0  0  0  0  0  0  0  0  0  0  0  0
  172.0422  246.0231  209.1858 C   0  0  0  0  0  0  0  0  0  0  0  0
  172.4658  245.2402  208.7300 C   0  0  0  0  0  0  0  0  0  0  0  0
  172.9597  245.2627  207.8608 C   0  0  0  0  0  0  0  0  0  0  0  0
  173.2690  244.3338  207.6570 N   0  0  0  0  0  0  0  0  0  0  0  0
  172.9661  243.7372  208.4003 C   0  0  0  0  0  0  0  0  0  0  0  0
  172.4697  244.2975  209.0634 N   0  0  0  0  0  0  0  0  0  0  0  0
  172.0573  243.9771  209.8980 H   0  0  0  0  0  0  0  0  0  0  0  0
 95 96  1  0  0  0
 95 97  1  0  0  0
 95 98  1  0  0  0
 96 91  1  0  0  0
 96 99  1  0  0  0
 91 92  2  0  0  0
 91 93  1  0  0  0
 93 90  1  0  0  0
 93 94  1  0  0  0
 90103  1  0  0  0
 90 86  1  0  0  0
103104  1  0  0  0
104105  1  0  0  0
105106  2  0  0  0
105107  1  0  0  0
107108  1  0  0  0
107109  1  0  0  0
 86 87  2  0  0  0
 86 88  1  0  0  0
 88 85  1  0  0  0
 88 89  1  0  0  0
 85110  1  0  0  0
 85 81  1  0  0  0
110111  1  0  0  0
111112  1  0  0  0
112113  2  0  0  0
112114  1  0  0  0
114115  1  0  0  0
114116  1  0  0  0
 81 82  2  0  0  0
 81 83  1  0  0  0
 83 79  1  0  0  0
 83 84  1  0  0  0
 79 80  1  0  0  0
 79 75  1  0  0  0
 75 76  2  0  0  0
 75 77  1  0  0  0
 77 74  1  0  0  0
 77 78  1  0  0  0
 74117  1  0  0  0
 74 70  1  0  0  0
117118  1  0  0  0
118119  1  0  0  0
 70 71  2  0  0  0
 70 72  1  0  0  0
 72 69  1  0  0  0
 72 73  1  0  0  0
 69120  1  0  0  0
 69 65  1  0  0  0
120121  1  0  0  0
121125  1  0  0  0
121122  2  0  0  0
122123  1  0  0  0
123124  2  0  0  0
124125  1  0  0  0
125126  1  0  0  0
 65 66  2  0  0  0
 65 67  1  0  0  0
 67  1  1  0  0  0
 67 68  1  0  0  0
  1  2  1  0  0  0
  1 10  1  0  0  0
  2  8  2  0  0  0
  2  3  1  0  0  0
  3  4  2  0  0  0
  4  5  1  0  0  0
  5  6  1  0  0  0
  5  7  2  0  0  0
  6  9  1  0  0  0
  7  8  1  0  0  0
 10 11  2  0  0  0
 10 12  1  0  0  0
 12 14  1  0  0  0
 12 13  1  0  0  0
 14 58  1  0  0  0
 14 15  1  0  0  0
 58 59  1  0  0  0
 59 60  1  0  0  0
 60 61  1  0  0  0
 61 62  1  0  0  0
 62 63  1  0  0  0
 62 64  1  0  0  0
 15 16  2  0  0  0
 15 17  1  0  0  0
 17 19  1  0  0  0
 17 18  1  0  0  0
 19 51  1  0  0  0
 19 20  1  0  0  0
 51 52  1  0  0  0
 52 53  1  0  0  0
 53 54  2  0  0  0
 53 55  1  0  0  0
 55 56  1  0  0  0
 55 57  1  0  0  0
 20 21  2  0  0  0
 20 22  1  0  0  0
 22 24  1  0  0  0
 22 23  1  0  0  0
 24 44  1  0  0  0
 24 25  1  0  0  0
 44 45  1  0  0  0
 45 49  1  0  0  0
 45 46  2  0  0  0
 46 47  1  0  0  0
 47 48  2  0  0  0
 48 49  1  0  0  0
 49 50  1  0  0  0
 25 26  2  0  0  0
 25 27  1  0  0  0
 27 29  1  0  0  0
 27 28  1  0  0  0
 29 41  1  0  0  0
 29 30  1  0  0  0
 41 42  1  0  0  0
 42 43  1  0  0  0
 30 31  2  0  0  0
 30 32  1  0  0  0
 32 36  1  0  0  0
 32 33  1  0  0  0
 33 34  1  0  0  0
 34 35  1  0  0  0
 35 36  1  0  0  0
 36 37  1  0  0  0
 37 38  1  0  0  0
 37 39  2  0  0  0
 38 40  1  0  0  0
 99100  1  0  0  0
 99101  1  0  0  0
100102  1  0  0  0
M  END
> <minimizedAffinity>
-8.60688

$$$$



126129  0  0  0  0  0  0  0  0999 V2000
  170.8734  244.6814  212.1352 C   0  0  0  0  0  0  0  0  0  0  0  0
  170.2041  244.1606  212.6651 C   0  0  0  0  0  0  0  0  0  0  0  0
  170.0249  244.4013  213.6190 C   0  0  0  0  0  0  0  0  0  0  0  0
  169.3555  243.8805  214.1489 C   0  0  0  0  0  0  0  0  0  0  0  0
  168.8653  243.1190  213.7248 C   0  0  0  0  0  0  0  0  0  0  0  0
  168.1960  242.5983  214.2547 O   0  0  0  0  0  0  0  0  0  0  0  0
  169.0445  242.8783  212.7709 C   0  0  0  0  0  0  0  0  0  0  0  0
  169.7138  243.3991  212.2410 C   0  0  0  0  0  0  0  0  0  0  0  0
  168.0282  242.8238  215.1485 H   0  0  0  0  0  0  0  0  0  0  0  0
  171.7142  244.2408  211.8206 C   0  0  0  0  0  0  0  0  0  0  0  0
  172.5307  244.2521  212.3978 O   0  0  0  0  0  0  0  0  0  0  0  0
  171.7384  243.7888  210.9290 N   0  0  0  0  0  0  0  0  0  0  0  0
  170.9345  243.7776  210.3607 H   0  0  0  0  0  0  0  0  0  0  0  0
  172.5792  243.3481  210.6144 C   0  0  0  0  0  0  0  0  0  0  0  0
  172.6502  242.3507  210.6118 C   0  0  0  0  0  0  0  0  0  0  0  0
  172.2614  241.8237  209.8561 O   0  0  0  0  0  0  0  0  0  0  0  0
  173.1100  241.8802  211.3650 N   0  0  0  0  0  0  0  0  0  0  0  0
  173.4928  242.3991  212.1089 H   0  0  0  0  0  0  0  0  0  0  0  0
  173.1810  240.8828  211.3624 C   0  0  0  0  0  0  0  0  0  0  0  0
  172.4606  240.3292  211.7801 C   0  0  0  0  0  0  0  0  0  0  0  0
  171.8649  240.7275  212.4776 O   0  0  0  0  0  0  0  0  0  0  0  0
  172.3357  239.3772  211.5003 N   0  0  0  0  0  0  0  0  0  0  0  0
  172.9222  238.9851  210.8136 H   0  0  0  0  0  0  0  0  0  0  0  0
  171.6153  238.8236  211.9180 C   0  0  0  0  0  0  0  0  0  0  0  0
  170.7433  238.6983  211.4449 C   0  0  0  0  0  0  0  0  0  0  0  0
  169.8846  238.7676  211.9525 O   0  0  0  0  0  0  0  0  0  0  0  0
  170.7301  238.5036  210.4641 N   0  0  0  0  0  0  0  0  0  0  0  0
  171.5755  238.4354  209.9644 H   0  0  0  0  0  0  0  0  0  0  0  0
  169.8581  238.3783  209.9910 C   0  0  0  0  0  0  0  0  0  0  0  0
  169.5253  237.4566  209.7917 C   0  0  0  0  0  0  0  0  0  0  0  0
  168.6558  237.1452  210.1750 O   0  0  0  0  0  0  0  0  0  0  0  0
  170.0621  236.8462  209.2091 N   0  0  0  0  0  0  0  0  0  0  0  0
  170.9391  237.0635  208.7807 C   0  0  0  0  0  0  0  0  0  0  0  0
  171.2350  236.2630  208.2595 C   0  0  0  0  0  0  0  0  0  0  0  0
  170.5409  235.5511  208.3658 C   0  0  0  0  0  0  0  0  0  0  0  0
  169.8159  235.9116  208.9526 C   0  0  0  0  0  0  0  0  0  0  0  0
  168.9899  235.4231  209.2337 C   0  0  0  0  0  0  0  0  0  0  0  0
  168.1721  235.4517  208.6589 O   0  0  0  0  0  0  0  0  0  0  0  0
  168.9816  234.9060  210.0897 O   0  0  0  0  0  0  0  0  0  0  0  0
  168.1798  235.9362  207.8570 H   0  0  0  0  0  0  0  0  0  0  0  0
  169.3188  239.1747  209.7170 C   0  0  0  0  0  0  0  0  0  0  0  0
  169.6234  239.7469  208.9556 S   0  0  0  0  0  0  0  0  0  0  0  0
  170.7711  239.4422  208.2926 H   0  0  0  0  0  0  0  0  0  0  0  0
  171.7669  238.3954  212.8089 C   0  0  0  0  0  0  0  0  0  0  0  0
  172.4420  237.6638  212.9036 C   0  0  0  0  0  0  0  0  0  0  0  0
  172.4609  236.8103  212.3829 C   0  0  0  0  0  0  0  0  0  0  0  0
  173.2473  236.2763  212.6931 N   0  0  0  0  0  0  0  0  0  0  0  0
  173.7146  236.7997  213.4057 C   0  0  0  0  0  0  0  0  0  0  0  0
  173.2168  237.6573  213.5357 N   0  0  0  0  0  0  0  0  0  0  0  0
  173.4489  238.3699  214.1741 H   0  0  0  0  0  0  0  0  0  0  0  0
  173.9724  240.4389  210.9422 C   0  0  0  0  0  0  0  0  0  0  0  0
  174.8573  240.4493  211.4078 C   0  0  0  0  0  0  0  0  0  0  0  0
  175.6689  240.7876  210.9316 C   0  0  0  0  0  0  0  0  0  0  0  0
  175.7229  240.7328  209.9345 O   0  0  0  0  0  0  0  0  0  0  0  0
  176.4266  241.1808  211.4525 N   0  0  0  0  0  0  0  0  0  0  0  0
  176.3735  241.2348  212.4341 H   0  0  0  0  0  0  0  0  0  0  0  0
  177.2257  241.5139  210.9837 H   0  0  0  0  0  0  0  0  0  0  0  0
  173.3489  243.9050  210.3023 C   0  0  0  0  0  0  0  0  0  0  0  0
  173.4572  244.1079  209.3291 C   0  0  0  0  0  0  0  0  0  0  0  0
  174.3511  244.3776  208.9710 C   0  0  0  0  0  0  0  0  0  0  0  0
  175.1141  244.5349  209.5979 C   0  0  0  0  0  0  0  0  0  0  0  0
  175.8994  245.0793  209.3031 N   0  0  0  0  0  0  0  0  0  0  0  0
  175.9221  245.4741  208.3628 H   0  0  0  0  0  0  0  0  0  0  0  0
  176.6777  245.2397  209.9425 H   0  0  0  0  0  0  0  0  0  0  0  0
  170.1812  245.8867  211.1018 C   0  0  0  0  0  0  0  0  0  0  0  0
  169.8317  245.1693  210.4990 O   0  0  0  0  0  0  0  0  0  0  0  0
  170.7020  245.6427  211.9198 N   0  0  0  0  0  0  0  0  0  0  0  0
  171.0459  246.3490  212.5132 H   0  0  0  0  0  0  0  0  0  0  0  0
  170.0097  246.8481  210.8864 C   0  0  0  0  0  0  0  0  0  0  0  0
  171.2221  247.6727  209.9644 C   0  0  0  0  0  0  0  0  0  0  0  0
  170.9099  247.2064  209.1368 O   0  0  0  0  0  0  0  0  0  0  0  0
  170.7720  247.4935  210.8393 N   0  0  0  0  0  0  0  0  0  0  0  0
  171.0794  247.9526  211.6541 H   0  0  0  0  0  0  0  0  0  0  0  0
  171.9844  248.3182  209.9173 C   0  0  0  0  0  0  0  0  0  0  0  0
  173.6195  247.9570  210.3599 C   0  0  0  0  0  0  0  0  0  0  0  0
  173.8063  247.6563  209.4247 O   0  0  0  0  0  0  0  0  0  0  0  0
  172.7086  248.2879  210.6062 N   0  0  0  0  0  0  0  0  0  0  0  0
  172.5247  248.5839  211.5270 H   0  0  0  0  0  0  0  0  0  0  0  0
  174.3437  247.9267  211.0489 C   0  0  0  0  0  0  0  0  0  0  0  0
  175.2584  248.2649  210.8280 C   0  0  0  0  0  0  0  0  0  0  0  0
  174.5461  247.9955  212.7676 C   0  0  0  0  0  0  0  0  0  0  0  0
  175.1296  248.8013  212.6667 O   0  0  0  0  0  0  0  0  0  0  0  0
  174.1531  247.5582  211.9587 N   0  0  0  0  0  0  0  0  0  0  0  0
  173.5786  246.7649  212.0582 H   0  0  0  0  0  0  0  0  0  0  0  0
  174.3555  247.6270  213.6776 C   0  0  0  0  0  0  0  0  0  0  0  0
  175.5896  246.7665  214.5358 C   0  0  0  0  0  0  0  0  0  0  0  0
  175.3823  245.9429  214.0080 O   0  0  0  0  0  0  0  0  0  0  0  0
  175.0762  247.6086  214.3706 N   0  0  0  0  0  0  0  0  0  0  0  0
  175.2803  248.4195  214.8901 H   0  0  0  0  0  0  0  0  0  0  0  0
  176.3104  246.7481  215.2287 C   0  0  0  0  0  0  0  0  0  0  0  0
  177.6414  247.8519  215.1284 C   0  0  0  0  0  0  0  0  0  0  0  0
  178.0865  247.2546  214.4613 O   0  0  0  0  0  0  0  0  0  0  0  0
  176.7533  247.5987  215.5121 N   0  0  0  0  0  0  0  0  0  0  0  0
  176.3151  248.1867  216.1690 H   0  0  0  0  0  0  0  0  0  0  0  0
  177.7700  249.5771  215.0426 N   0  0  0  0  0  0  0  0  0  0  0  0
  178.0843  248.7025  215.4119 C   0  0  0  0  0  0  0  0  0  0  0  0
  178.2217  250.4447  215.3317 H   0  0  0  0  0  0  0  0  0  0  0  0
  176.9976  249.6015  214.3768 H   0  0  0  0  0  0  0  0  0  0  0  0
  178.8415  248.6786  216.0646 C   0  0  0  0  0  0  0  0  0  0  0  0
  178.6613  248.5090  217.0335 O   0  0  0  0  0  0  0  0  0  0  0  0
  179.7789  248.8242  215.7485 C   0  0  0  0  0  0  0  0  0  0  0  0
  177.7519  248.3677  217.3402 H   0  0  0  0  0  0  0  0  0  0  0  0
  176.5882  245.8792  215.6382 C   0  0  0  0  0  0  0  0  0  0  0  0
  176.3275  245.6640  216.5794 C   0  0  0  0  0  0  0  0  0  0  0  0
  176.8974  245.0529  217.1288 C   0  0  0  0  0  0  0  0  0  0  0  0
  177.6706  245.4204  217.6456 O   0  0  0  0  0  0  0  0  0  0  0  0
  176.6939  244.0744  217.1615 N   0  0  0  0  0  0  0  0  0  0  0  0
  175.9327  243.7127  216.6527 H   0  0  0  0  0  0  0  0  0  0  0  0
  177.2549  243.4728  217.7024 H   0  0  0  0  0  0  0  0  0  0  0  0
  173.4442  247.2770  213.8945 C   0  0  0  0  0  0  0  0  0  0  0  0
  172.7301  247.9025  214.2088 C   0  0  0  0  0  0  0  0  0  0  0  0
  171.8432  247.5434  214.4991 C   0  0  0  0  0  0  0  0  0  0  0  0
  171.0109  247.8166  214.0167 O   0  0  0  0  0  0  0  0  0  0  0  0
  171.7884  246.9109  215.2718 N   0  0  0  0  0  0  0  0  0  0  0  0
  172.6077  246.6419  215.7468 H   0  0  0  0  0  0  0  0  0  0  0  0
  170.9151  246.5573  215.5576 H   0  0  0  0  0  0  0  0  0  0  0  0
  172.0226  248.9939  209.1811 C   0  0  0  0  0  0  0  0  0  0  0  0
  171.4952  249.8406  209.2518 O   0  0  0  0  0  0  0  0  0  0  0  0
  171.5322  250.4961  208.5377 H   0  0  0  0  0  0  0  0  0  0  0  0
  169.0759  247.1640  210.7182 C   0  0  0  0  0  0  0  0  0  0  0  0
  168.5115  247.4837  211.4793 C   0  0  0  0  0  0  0  0  0  0  0  0
  167.6119  247.1288  211.7336 C   0  0  0  0  0  0  0  0  0  0  0  0
  167.2920  247.6403  212.5311 N   0  0  0  0  0  0  0  0  0  0  0  0
  167.9940  248.3114  212.7697 C   0  0  0  0  0  0  0  0  0  0  0  0
  168.7477  248.2146  212.1196 N   0  0  0  0  0  0  0  0  0  0  0  0
  169.5766  248.7456  212.1115 H   0  0  0  0  0  0  0  0  0  0  0  0
 95 96  1  0  0  0
 95 97  1  0  0  0
 95 98  1  0  0  0
 96 91  1  0  0  0
 96 99  1  0  0  0
 91 92  2  0  0  0
 91 93  1  0  0  0
 93 90  1  0  0  0
 93 94  1  0  0  0
 90103  1  0  0  0
 90 86  1  0  0  0
103104  1  0  0  0
104105  1  0  0  0
105106  2  0  0  0
105107  1  0  0  0
107108  1  0  0  0
107109  1  0  0  0
 86 87  2  0  0  0
 86 88  1  0  0  0
 88 85  1  0  0  0
 88 89  1  0  0  0
 85110  1  0  0  0
 85 81  1  0  0  0
110111  1  0  0  0
111112  1  0  0  0
112113  2  0  0  0
112114  1  0  0  0
114115  1  0  0  0
114116  1  0  0  0
 81 82  2  0  0  0
 81 83  1  0  0  0
 83 79  1  0  0  0
 83 84  1  0  0  0
 79 80  1  0  0  0
 79 75  1  0  0  0
 75 76  2  0  0  0
 75 77  1  0  0  0
 77 74  1  0  0  0
 77 78  1  0  0  0
 74117  1  0  0  0
 74 70  1  0  0  0
117118  1  0  0  0
118119  1  0  0  0
 70 71  2  0  0  0
 70 72  1  0  0  0
 72 69  1  0  0  0
 72 73  1  0  0  0
 69120  1  0  0  0
 69 65  1  0  0  0
120121  1  0  0  0
121125  1  0  0  0
121122  2  0  0  0
122123  1  0  0  0
123124  2  0  0  0
124125  1  0  0  0
125126  1  0  0  0
 65 66  2  0  0  0
 65 67  1  0  0  0
 67  1  1  0  0  0
 67 68  1  0  0  0
  1  2  1  0  0  0
  1 10  1  0  0  0
  2  8  2  0  0  0
  2  3  1  0  0  0
  3  4  2  0  0  0
  4  5  1  0  0  0
  5  6  1  0  0  0
  5  7  2  0  0  0
  6  9  1  0  0  0
  7  8  1  0  0  0
 10 11  2  0  0  0
 10 12  1  0  0  0
 12 14  1  0  0  0
 12 13  1  0  0  0
 14 58  1  0  0  0
 14 15  1  0  0  0
 58 59  1  0  0  0
 59 60  1  0  0  0
 60 61  1  0  0  0
 61 62  1  0  0  0
 62 63  1  0  0  0
 62 64  1  0  0  0
 15 16  2  0  0  0
 15 17  1  0  0  0
 17 19  1  0  0  0
 17 18  1  0  0  0
 19 51  1  0  0  0
 19 20  1  0  0  0
 51 52  1  0  0  0
 52 53  1  0  0  0
 53 54  2  0  0  0
 53 55  1  0  0  0
 55 56  1  0  0  0
 55 57  1  0  0  0
 20 21  2  0  0  0
 20 22  1  0  0  0
 22 24  1  0  0  0
 22 23  1  0  0  0
 24 44  1  0  0  0
 24 25  1  0  0  0
 44 45  1  0  0  0
 45 49  1  0  0  0
 45 46  2  0  0  0
 46 47  1  0  0  0
 47 48  2  0  0  0
 48 49  1  0  0  0
 49 50  1  0  0  0
 25 26  2  0  0  0
 25 27  1  0  0  0
 27 29  1  0  0  0
 27 28  1  0  0  0
 29 41  1  0  0  0
 29 30  1  0  0  0
 41 42  1  0  0  0
 42 43  1  0  0  0
 30 31  2  0  0  0
 30 32  1  0  0  0
 32 36  1  0  0  0
 32 33  1  0  0  0
 33 34  1  0  0  0
 34 35  1  0  0  0
 35 36  1  0  0  0
 36 37  1  0  0  0
 37 38  1  0  0  0
 37 39  2  0  0  0
 38 40  1  0  0  0
 99100  1  0  0  0
 99101  1  0  0  0
100102  1  0  0  0
M  END
> <minimizedAffinity>
-8.47973

$$$$



126129  0  0  0  0  0  0  0  0999 V2000
  170.6548  245.6763  210.4707 C   0  0  0  0  0  0  0  0  0  0  0  0
  169.6756  245.5290  210.3310 C   0  0  0  0  0  0  0  0  0  0  0  0
  169.0216  245.8199  211.0293 C   0  0  0  0  0  0  0  0  0  0  0  0
  168.0423  245.6725  210.8895 C   0  0  0  0  0  0  0  0  0  0  0  0
  167.7172  245.2344  210.0515 C   0  0  0  0  0  0  0  0  0  0  0  0
  166.7381  245.0871  209.9118 O   0  0  0  0  0  0  0  0  0  0  0  0
  168.3713  244.9435  209.3532 C   0  0  0  0  0  0  0  0  0  0  0  0
  169.3504  245.0908  209.4929 C   0  0  0  0  0  0  0  0  0  0  0  0
  166.1252  245.3596  210.5661 H   0  0  0  0  0  0  0  0  0  0  0  0
  171.2100  244.9673  210.9055 C   0  0  0  0  0  0  0  0  0  0  0  0
  171.9299  245.2218  211.5512 O   0  0  0  0  0  0  0  0  0  0  0  0
  171.0452  244.0038  210.6947 N   0  0  0  0  0  0  0  0  0  0  0  0
  170.3364  243.7532  210.0591 H   0  0  0  0  0  0  0  0  0  0  0  0
  171.6004  243.2947  211.1295 C   0  0  0  0  0  0  0  0  0  0  0  0
  172.3683  242.8876  210.6350 C   0  0  0  0  0  0  0  0  0  0  0  0
  172.4124  242.9535  209.6382 O   0  0  0  0  0  0  0  0  0  0  0  0
  173.0922  242.4147  211.1374 N   0  0  0  0  0  0  0  0  0  0  0  0
  173.0487  242.3499  212.1188 H   0  0  0  0  0  0  0  0  0  0  0  0
  173.8601  242.0076  210.6430 C   0  0  0  0  0  0  0  0  0  0  0  0
  173.8041  241.0616  210.3237 C   0  0  0  0  0  0  0  0  0  0  0  0
  174.3293  240.7720  209.5235 O   0  0  0  0  0  0  0  0  0  0  0  0
  173.2230  240.4051  210.8047 N   0  0  0  0  0  0  0  0  0  0  0  0
  172.7059  240.6902  211.5925 H   0  0  0  0  0  0  0  0  0  0  0  0
  173.1670  239.4591  210.4855 C   0  0  0  0  0  0  0  0  0  0  0  0
  172.4619  239.1943  209.8276 C   0  0  0  0  0  0  0  0  0  0  0  0
  172.7228  238.7935  208.9494 O   0  0  0  0  0  0  0  0  0  0  0  0
  171.4960  239.3303  210.0480 N   0  0  0  0  0  0  0  0  0  0  0  0
  171.2393  239.7249  210.9126 H   0  0  0  0  0  0  0  0  0  0  0  0
  170.7910  239.0656  209.3902 C   0  0  0  0  0  0  0  0  0  0  0  0
  170.3847  238.1528  209.4329 C   0  0  0  0  0  0  0  0  0  0  0  0
  170.5246  237.5076  208.6818 O   0  0  0  0  0  0  0  0  0  0  0  0
  169.8386  237.8852  210.2268 N   0  0  0  0  0  0  0  0  0  0  0  0
  169.6421  238.4557  211.0242 C   0  0  0  0  0  0  0  0  0  0  0  0
  169.0751  237.9232  211.6528 C   0  0  0  0  0  0  0  0  0  0  0  0
  168.9213  237.0238  211.2438 C   0  0  0  0  0  0  0  0  0  0  0  0
  169.3932  237.0003  210.3625 C   0  0  0  0  0  0  0  0  0  0  0  0
  169.4157  236.2276  209.7282 C   0  0  0  0  0  0  0  0  0  0  0  0
  168.6845  236.1109  209.0561 O   0  0  0  0  0  0  0  0  0  0  0  0
  170.1694  235.5713  209.7661 O   0  0  0  0  0  0  0  0  0  0  0  0
  167.9783  236.7257  209.0206 H   0  0  0  0  0  0  0  0  0  0  0  0
  170.4922  239.7136  208.6895 C   0  0  0  0  0  0  0  0  0  0  0  0
  169.9284  240.4996  208.9432 S   0  0  0  0  0  0  0  0  0  0  0  0
  169.5681  240.6873  210.2411 H   0  0  0  0  0  0  0  0  0  0  0  0
  173.8160  238.7779  210.8241 C   0  0  0  0  0  0  0  0  0  0  0  0
  173.6463  238.3145  211.6939 C   0  0  0  0  0  0  0  0  0  0  0  0
  173.5539  237.3276  211.8260 C   0  0  0  0  0  0  0  0  0  0  0  0
  173.3897  237.1599  212.7980 N   0  0  0  0  0  0  0  0  0  0  0  0
  173.3807  238.0432  213.2668 C   0  0  0  0  0  0  0  0  0  0  0  0
  173.5393  238.7568  212.5843 N   0  0  0  0  0  0  0  0  0  0  0  0
  173.5825  239.7248  212.7587 H   0  0  0  0  0  0  0  0  0  0  0  0
  174.6841  242.5465  210.4677 C   0  0  0  0  0  0  0  0  0  0  0  0
  175.3162  242.7508  211.2151 C   0  0  0  0  0  0  0  0  0  0  0  0
  176.1362  243.2962  211.0414 C   0  0  0  0  0  0  0  0  0  0  0  0
  176.9754  242.8515  210.7283 O   0  0  0  0  0  0  0  0  0  0  0  0
  176.1171  244.2862  211.1809 N   0  0  0  0  0  0  0  0  0  0  0  0
  175.2909  244.7240  211.4892 H   0  0  0  0  0  0  0  0  0  0  0  0
  176.9243  244.8232  211.0099 H   0  0  0  0  0  0  0  0  0  0  0  0
  171.3876  242.9928  212.0588 C   0  0  0  0  0  0  0  0  0  0  0  0
  170.5564  242.4654  212.2352 C   0  0  0  0  0  0  0  0  0  0  0  0
  170.1889  242.4069  213.1634 C   0  0  0  0  0  0  0  0  0  0  0  0
  169.3089  242.8293  213.3803 C   0  0  0  0  0  0  0  0  0  0  0  0
  168.7452  242.4594  214.1188 N   0  0  0  0  0  0  0  0  0  0  0  0
  169.0679  241.6510  214.6507 H   0  0  0  0  0  0  0  0  0  0  0  0
  167.8476  242.8902  214.3401 H   0  0  0  0  0  0  0  0  0  0  0  0
  171.5518  246.5791  209.2959 C   0  0  0  0  0  0  0  0  0  0  0  0
  171.6010  245.7693  208.7111 O   0  0  0  0  0  0  0  0  0  0  0  0
  171.0787  246.5325  210.1757 N   0  0  0  0  0  0  0  0  0  0  0  0
  171.0303  247.3297  210.7513 H   0  0  0  0  0  0  0  0  0  0  0  0
  171.9758  247.4353  209.0008 C   0  0  0  0  0  0  0  0  0  0  0  0
  173.3539  248.0218  209.8708 C   0  0  0  0  0  0  0  0  0  0  0  0
  173.9367  247.3681  209.3882 O   0  0  0  0  0  0  0  0  0  0  0  0
  172.3734  248.0554  209.6771 N   0  0  0  0  0  0  0  0  0  0  0  0
  171.7995  248.6990  210.1522 H   0  0  0  0  0  0  0  0  0  0  0  0
  173.7515  248.6419  210.5471 C   0  0  0  0  0  0  0  0  0  0  0  0
  174.0440  248.2937  212.2183 C   0  0  0  0  0  0  0  0  0  0  0  0
  173.1451  248.6638  212.4527 O   0  0  0  0  0  0  0  0  0  0  0  0
  174.3472  248.2827  211.2655 N   0  0  0  0  0  0  0  0  0  0  0  0
  175.2321  247.9183  211.0347 H   0  0  0  0  0  0  0  0  0  0  0  0
  174.6397  247.9345  212.9368 C   0  0  0  0  0  0  0  0  0  0  0  0
  175.6303  247.9155  212.8018 C   0  0  0  0  0  0  0  0  0  0  0  0
  174.3540  246.6332  214.0435 C   0  0  0  0  0  0  0  0  0  0  0  0
  174.8583  246.0122  213.4435 O   0  0  0  0  0  0  0  0  0  0  0  0
  174.2447  247.5944  213.7902 N   0  0  0  0  0  0  0  0  0  0  0  0
  173.7482  248.2058  214.3809 H   0  0  0  0  0  0  0  0  0  0  0  0
  173.9591  246.2930  214.8969 C   0  0  0  0  0  0  0  0  0  0  0  0
  172.2877  245.8539  215.0133 C   0  0  0  0  0  0  0  0  0  0  0  0
  172.4997  244.9491  214.6440 O   0  0  0  0  0  0  0  0  0  0  0  0
  173.0174  246.5258  215.1398 N   0  0  0  0  0  0  0  0  0  0  0  0
  172.8087  247.4166  215.5034 H   0  0  0  0  0  0  0  0  0  0  0  0
  171.3460  246.0867  215.2562 C   0  0  0  0  0  0  0  0  0  0  0  0
  170.4352  247.2717  214.3808 C   0  0  0  0  0  0  0  0  0  0  0  0
  170.1744  246.5765  213.7110 O   0  0  0  0  0  0  0  0  0  0  0  0
  171.0209  247.0268  215.1534 N   0  0  0  0  0  0  0  0  0  0  0  0
  171.2777  247.7112  215.8129 H   0  0  0  0  0  0  0  0  0  0  0  0
  170.2006  248.8578  215.0361 N   0  0  0  0  0  0  0  0  0  0  0  0
  170.1101  248.2119  214.2781 C   0  0  0  0  0  0  0  0  0  0  0  0
  169.8691  249.8167  214.9314 H   0  0  0  0  0  0  0  0  0  0  0  0
  170.6244  248.5577  215.9141 H   0  0  0  0  0  0  0  0  0  0  0  0
  169.6947  248.5060  213.4174 C   0  0  0  0  0  0  0  0  0  0  0  0
  170.2697  248.6768  212.6172 O   0  0  0  0  0  0  0  0  0  0  0  0
  168.7042  248.6295  213.3568 C   0  0  0  0  0  0  0  0  0  0  0  0
  171.2305  248.5570  212.6760 H   0  0  0  0  0  0  0  0  0  0  0  0
  170.7293  245.3795  215.6018 C   0  0  0  0  0  0  0  0  0  0  0  0
  170.3944  245.4245  216.5429 C   0  0  0  0  0  0  0  0  0  0  0  0
  169.4986  245.0443  216.7737 C   0  0  0  0  0  0  0  0  0  0  0  0
  168.7562  245.6508  217.0580 O   0  0  0  0  0  0  0  0  0  0  0  0
  169.3455  244.0575  216.7202 N   0  0  0  0  0  0  0  0  0  0  0  0
  170.0765  243.4605  216.4404 H   0  0  0  0  0  0  0  0  0  0  0  0
  168.4638  243.6832  216.9474 H   0  0  0  0  0  0  0  0  0  0  0  0
  174.5058  245.7200  215.5074 C   0  0  0  0  0  0  0  0  0  0  0  0
  174.9156  246.1147  216.3298 C   0  0  0  0  0  0  0  0  0  0  0  0
  175.7185  245.6855  216.7436 C   0  0  0  0  0  0  0  0  0  0  0  0
  175.8226  244.6912  216.7188 O   0  0  0  0  0  0  0  0  0  0  0  0
  176.4173  246.2506  217.1823 N   0  0  0  0  0  0  0  0  0  0  0  0
  176.3148  247.2294  217.2068 H   0  0  0  0  0  0  0  0  0  0  0  0
  177.2076  245.8280  217.5898 H   0  0  0  0  0  0  0  0  0  0  0  0
  173.5534  249.6212  210.5049 C   0  0  0  0  0  0  0  0  0  0  0  0
  174.0748  250.2106  209.8879 O   0  0  0  0  0  0  0  0  0  0  0  0
  173.8827  251.1606  209.8470 H   0  0  0  0  0  0  0  0  0  0  0  0
  172.0021  247.6715  208.0294 C   0  0  0  0  0  0  0  0  0  0  0  0
  171.3457  248.3272  207.6563 C   0  0  0  0  0  0  0  0  0  0  0  0
  171.5318  249.2849  207.4367 C   0  0  0  0  0  0  0  0  0  0  0  0
  170.6891  249.6900  207.0819 N   0  0  0  0  0  0  0  0  0  0  0  0
  169.9822  248.9826  207.0823 C   0  0  0  0  0  0  0  0  0  0  0  0
  170.3881  248.1404  207.4373 N   0  0  0  0  0  0  0  0  0  0  0  0
  169.9259  247.2786  207.5511 H   0  0  0  0  0  0  0  0  0  0  0  0
 95 96  1  0  0  0
 95 97  1  0  0  0
 95 98  1  0  0  0
 96 91  1  0  0  0
 96 99  1  0  0  0
 91 92  2  0  0  0
 91 93  1  0  0  0
 93 90  1  0  0  0
 93 94  1  0  0  0
 90103  1  0  0  0
 90 86  1  0  0  0
103104  1  0  0  0
104105  1  0  0  0
105106  2  0  0  0
105107  1  0  0  0
107108  1  0  0  0
107109  1  0  0  0
 86 87  2  0  0  0
 86 88  1  0  0  0
 88 85  1  0  0  0
 88 89  1  0  0  0
 85110  1  0  0  0
 85 81  1  0  0  0
110111  1  0  0  0
111112  1  0  0  0
112113  2  0  0  0
112114  1  0  0  0
114115  1  0  0  0
114116  1  0  0  0
 81 82  2  0  0  0
 81 83  1  0  0  0
 83 79  1  0  0  0
 83 84  1  0  0  0
 79 80  1  0  0  0
 79 75  1  0  0  0
 75 76  2  0  0  0
 75 77  1  0  0  0
 77 74  1  0  0  0
 77 78  1  0  0  0
 74117  1  0  0  0
 74 70  1  0  0  0
117118  1  0  0  0
118119  1  0  0  0
 70 71  2  0  0  0
 70 72  1  0  0  0
 72 69  1  0  0  0
 72 73  1  0  0  0
 69120  1  0  0  0
 69 65  1  0  0  0
120121  1  0  0  0
121125  1  0  0  0
121122  2  0  0  0
122123  1  0  0  0
123124  2  0  0  0
124125  1  0  0  0
125126  1  0  0  0
 65 66  2  0  0  0
 65 67  1  0  0  0
 67  1  1  0  0  0
 67 68  1  0  0  0
  1  2  1  0  0  0
  1 10  1  0  0  0
  2  8  2  0  0  0
  2  3  1  0  0  0
  3  4  2  0  0  0
  4  5  1  0  0  0
  5  6  1  0  0  0
  5  7  2  0  0  0
  6  9  1  0  0  0
  7  8  1  0  0  0
 10 11  2  0  0  0
 10 12  1  0  0  0
 12 14  1  0  0  0
 12 13  1  0  0  0
 14 58  1  0  0  0
 14 15  1  0  0  0
 58 59  1  0  0  0
 59 60  1  0  0  0
 60 61  1  0  0  0
 61 62  1  0  0  0
 62 63  1  0  0  0
 62 64  1  0  0  0
 15 16  2  0  0  0
 15 17  1  0  0  0
 17 19  1  0  0  0
 17 18  1  0  0  0
 19 51  1  0  0  0
 19 20  1  0  0  0
 51 52  1  0  0  0
 52 53  1  0  0  0
 53 54  2  0  0  0
 53 55  1  0  0  0
 55 56  1  0  0  0
 55 57  1  0  0  0
 20 21  2  0  0  0
 20 22  1  0  0  0
 22 24  1  0  0  0
 22 23  1  0  0  0
 24 44  1  0  0  0
 24 25  1  0  0  0
 44 45  1  0  0  0
 45 49  1  0  0  0
 45 46  2  0  0  0
 46 47  1  0  0  0
 47 48  2  0  0  0
 48 49  1  0  0  0
 49 50  1  0  0  0
 25 26  2  0  0  0
 25 27  1  0  0  0
 27 29  1  0  0  0
 27 28  1  0  0  0
 29 41  1  0  0  0
 29 30  1  0  0  0
 41 42  1  0  0  0
 42 43  1  0  0  0
 30 31  2  0  0  0
 30 32  1  0  0  0
 32 36  1  0  0  0
 32 33  1  0  0  0
 33 34  1  0  0  0
 34 35  1  0  0  0
 35 36  1  0  0  0
 36 37  1  0  0  0
 37 38  1  0  0  0
 37 39  2  0  0  0
 38 40  1  0  0  0
 99100  1  0  0  0
 99101  1  0  0  0
100102  1  0  0  0
M  END
> <minimizedAffinity>
-8.35273

$$$$



126129  0  0  0  0  0  0  0  0999 V2000
  174.7145  246.1237  212.2048 C   0  0  0  0  0  0  0  0  0  0  0  0
  175.2893  246.7790  212.6947 C   0  0  0  0  0  0  0  0  0  0  0  0
  175.8072  246.4867  213.4987 C   0  0  0  0  0  0  0  0  0  0  0  0
  176.3821  247.1421  213.9886 C   0  0  0  0  0  0  0  0  0  0  0  0
  176.4391  248.0898  213.6745 C   0  0  0  0  0  0  0  0  0  0  0  0
  177.0140  248.7451  214.1645 O   0  0  0  0  0  0  0  0  0  0  0  0
  175.9213  248.3821  212.8706 C   0  0  0  0  0  0  0  0  0  0  0  0
  175.3464  247.7268  212.3807 C   0  0  0  0  0  0  0  0  0  0  0  0
  177.4992  248.4712  214.9178 H   0  0  0  0  0  0  0  0  0  0  0  0
  174.9013  245.9145  211.2449 C   0  0  0  0  0  0  0  0  0  0  0  0
  175.7205  245.3978  210.9961 O   0  0  0  0  0  0  0  0  0  0  0  0
  174.2689  246.2219  210.5339 N   0  0  0  0  0  0  0  0  0  0  0  0
  173.4624  246.7306  210.7789 H   0  0  0  0  0  0  0  0  0  0  0  0
  174.4557  246.0126  209.5740 C   0  0  0  0  0  0  0  0  0  0  0  0
  174.0326  245.2148  209.1447 C   0  0  0  0  0  0  0  0  0  0  0  0
  173.0400  245.0976  209.1762 O   0  0  0  0  0  0  0  0  0  0  0  0
  174.6021  244.5341  208.6838 N   0  0  0  0  0  0  0  0  0  0  0  0
  175.5793  244.6495  208.6528 H   0  0  0  0  0  0  0  0  0  0  0  0
  174.1789  243.7362  208.2545 C   0  0  0  0  0  0  0  0  0  0  0  0
  174.1972  242.8504  208.7182 C   0  0  0  0  0  0  0  0  0  0  0  0
  173.9815  242.0160  208.2110 O   0  0  0  0  0  0  0  0  0  0  0  0
  174.4312  242.7990  209.6891 N   0  0  0  0  0  0  0  0  0  0  0  0
  174.6436  243.6204  210.1884 H   0  0  0  0  0  0  0  0  0  0  0  0
  174.4495  241.9132  210.1527 C   0  0  0  0  0  0  0  0  0  0  0  0
  173.6161  241.5494  210.5689 C   0  0  0  0  0  0  0  0  0  0  0  0
  173.0248  242.1479  211.1094 O   0  0  0  0  0  0  0  0  0  0  0  0
  173.3741  240.5871  210.4444 N   0  0  0  0  0  0  0  0  0  0  0  0
  173.9562  239.9980  209.9123 H   0  0  0  0  0  0  0  0  0  0  0  0
  172.5407  240.2234  210.8606 C   0  0  0  0  0  0  0  0  0  0  0  0
  171.7667  239.9623  210.2837 C   0  0  0  0  0  0  0  0  0  0  0  0
  170.9305  240.5106  210.2908 O   0  0  0  0  0  0  0  0  0  0  0  0
  171.8289  239.1527  209.6999 N   0  0  0  0  0  0  0  0  0  0  0  0
  172.6175  238.5428  209.6229 C   0  0  0  0  0  0  0  0  0  0  0  0
  172.3893  237.8242  208.9659 C   0  0  0  0  0  0  0  0  0  0  0  0
  171.4597  237.9901  208.6370 C   0  0  0  0  0  0  0  0  0  0  0  0
  171.1133  238.8112  209.0906 C   0  0  0  0  0  0  0  0  0  0  0  0
  170.2100  239.2190  208.9581 C   0  0  0  0  0  0  0  0  0  0  0  0
  170.0628  239.8800  208.2222 O   0  0  0  0  0  0  0  0  0  0  0  0
  169.4537  238.9660  209.5616 O   0  0  0  0  0  0  0  0  0  0  0  0
  170.7713  240.1171  207.6569 H   0  0  0  0  0  0  0  0  0  0  0  0
  172.4813  240.1206  211.8536 C   0  0  0  0  0  0  0  0  0  0  0  0
  172.9202  239.3425  212.3029 S   0  0  0  0  0  0  0  0  0  0  0  0
  173.5977  238.4239  211.5636 H   0  0  0  0  0  0  0  0  0  0  0  0
  175.3011  241.3912  210.2003 C   0  0  0  0  0  0  0  0  0  0  0  0
  176.0386  241.6917  210.8050 C   0  0  0  0  0  0  0  0  0  0  0  0
  176.7795  242.3180  210.5622 C   0  0  0  0  0  0  0  0  0  0  0  0
  177.3636  242.4321  211.3657 N   0  0  0  0  0  0  0  0  0  0  0  0
  176.9838  241.8762  212.1053 C   0  0  0  0  0  0  0  0  0  0  0  0
  176.1649  241.4187  211.7586 N   0  0  0  0  0  0  0  0  0  0  0  0
  175.5849  240.8069  212.2671 H   0  0  0  0  0  0  0  0  0  0  0  0
  173.7376  243.8242  207.3615 C   0  0  0  0  0  0  0  0  0  0  0  0
  174.2889  244.0038  206.5468 C   0  0  0  0  0  0  0  0  0  0  0  0
  173.8427  244.1605  205.6657 C   0  0  0  0  0  0  0  0  0  0  0  0
  173.0679  244.7897  205.6025 O   0  0  0  0  0  0  0  0  0  0  0  0
  174.1712  243.6881  204.8478 N   0  0  0  0  0  0  0  0  0  0  0  0
  174.9339  243.0687  204.9101 H   0  0  0  0  0  0  0  0  0  0  0  0
  173.7319  243.8425  203.9804 H   0  0  0  0  0  0  0  0  0  0  0  0
  175.0657  246.6013  209.0435 C   0  0  0  0  0  0  0  0  0  0  0  0
  174.7667  247.5165  208.7728 C   0  0  0  0  0  0  0  0  0  0  0  0
  175.4299  248.1734  208.4141 C   0  0  0  0  0  0  0  0  0  0  0  0
  175.1593  249.1236  208.2601 C   0  0  0  0  0  0  0  0  0  0  0  0
  175.8410  249.8531  208.3163 N   0  0  0  0  0  0  0  0  0  0  0  0
  176.8125  249.6278  208.5308 H   0  0  0  0  0  0  0  0  0  0  0  0
  175.5650  250.8223  208.1592 H   0  0  0  0  0  0  0  0  0  0  0  0
  173.0525  246.1126  212.6923 C   0  0  0  0  0  0  0  0  0  0  0  0
  172.9139  246.9938  212.2401 O   0  0  0  0  0  0  0  0  0  0  0  0
  173.9527  245.6777  212.6747 N   0  0  0  0  0  0  0  0  0  0  0  0
  174.0892  244.8103  213.1199 H   0  0  0  0  0  0  0  0  0  0  0  0
  172.2908  245.6666  213.1622 C   0  0  0  0  0  0  0  0  0  0  0  0
  171.5468  246.6152  214.4058 C   0  0  0  0  0  0  0  0  0  0  0  0
  172.3461  246.4759  214.9903 O   0  0  0  0  0  0  0  0  0  0  0  0
  171.5191  246.2105  213.4918 N   0  0  0  0  0  0  0  0  0  0  0  0
  170.7322  246.3477  212.9163 H   0  0  0  0  0  0  0  0  0  0  0  0
  170.7751  247.1592  214.7354 C   0  0  0  0  0  0  0  0  0  0  0  0
  169.2813  246.4271  215.2177 C   0  0  0  0  0  0  0  0  0  0  0  0
  169.6598  246.2540  216.1270 O   0  0  0  0  0  0  0  0  0  0  0  0
  169.8390  246.8797  214.5219 N   0  0  0  0  0  0  0  0  0  0  0  0
  169.4664  247.0501  213.6267 H   0  0  0  0  0  0  0  0  0  0  0  0
  168.3452  246.1476  215.0042 C   0  0  0  0  0  0  0  0  0  0  0  0
  167.6101  246.3202  215.6598 C   0  0  0  0  0  0  0  0  0  0  0  0
  167.3006  245.9104  213.6432 C   0  0  0  0  0  0  0  0  0  0  0  0
  166.6580  246.5774  214.0202 O   0  0  0  0  0  0  0  0  0  0  0  0
  168.1442  245.6955  214.1353 N   0  0  0  0  0  0  0  0  0  0  0  0
  168.7769  245.0388  213.7641 H   0  0  0  0  0  0  0  0  0  0  0  0
  167.0996  245.4582  212.7742 C   0  0  0  0  0  0  0  0  0  0  0  0
  167.6270  246.2815  211.3445 C   0  0  0  0  0  0  0  0  0  0  0  0
  166.8798  246.9382  211.4470 O   0  0  0  0  0  0  0  0  0  0  0  0
  167.7369  245.5416  212.0081 N   0  0  0  0  0  0  0  0  0  0  0  0
  168.4724  244.8951  211.9071 H   0  0  0  0  0  0  0  0  0  0  0  0
  168.2643  246.3649  210.5784 C   0  0  0  0  0  0  0  0  0  0  0  0
  169.8527  247.0506  210.4975 C   0  0  0  0  0  0  0  0  0  0  0  0
  170.2509  246.1353  210.5577 O   0  0  0  0  0  0  0  0  0  0  0  0
  168.8594  247.1654  210.5079 N   0  0  0  0  0  0  0  0  0  0  0  0
  168.4673  248.0665  210.4486 H   0  0  0  0  0  0  0  0  0  0  0  0
  170.5197  248.4898  211.1932 N   0  0  0  0  0  0  0  0  0  0  0  0
  170.4479  247.8512  210.4270 C   0  0  0  0  0  0  0  0  0  0  0  0
  171.1267  249.3063  211.1213 H   0  0  0  0  0  0  0  0  0  0  0  0
  169.9860  248.3245  212.0466 H   0  0  0  0  0  0  0  0  0  0  0  0
  170.9711  248.0131  209.5903 C   0  0  0  0  0  0  0  0  0  0  0  0
  171.1009  247.2729  208.9306 O   0  0  0  0  0  0  0  0  0  0  0  0
  171.3645  248.9153  209.4134 C   0  0  0  0  0  0  0  0  0  0  0  0
  170.7192  246.3978  209.1022 H   0  0  0  0  0  0  0  0  0  0  0  0
  168.3064  245.6477  209.8828 C   0  0  0  0  0  0  0  0  0  0  0  0
  167.5994  245.5928  209.1778 C   0  0  0  0  0  0  0  0  0  0  0  0
  167.6252  244.8581  208.4998 C   0  0  0  0  0  0  0  0  0  0  0  0
  167.6648  243.9043  208.7974 O   0  0  0  0  0  0  0  0  0  0  0  0
  167.6114  245.0773  207.5242 N   0  0  0  0  0  0  0  0  0  0  0  0
  167.5724  246.0164  207.2313 H   0  0  0  0  0  0  0  0  0  0  0  0
  167.6368  244.3541  206.8568 H   0  0  0  0  0  0  0  0  0  0  0  0
  166.2613  244.9228  212.6713 C   0  0  0  0  0  0  0  0  0  0  0  0
  166.2787  243.9337  212.8171 C   0  0  0  0  0  0  0  0  0  0  0  0
  165.4995  243.3732  212.5370 C   0  0  0  0  0  0  0  0  0  0  0  0
  164.5703  243.6507  212.7813 O   0  0  0  0  0  0  0  0  0  0  0  0
  165.6492  242.5350  212.0124 N   0  0  0  0  0  0  0  0  0  0  0  0
  166.5640  242.2618  211.7718 H   0  0  0  0  0  0  0  0  0  0  0  0
  164.8820  241.9832  211.7365 H   0  0  0  0  0  0  0  0  0  0  0  0
  170.9396  247.9826  215.2784 C   0  0  0  0  0  0  0  0  0  0  0  0
  171.1289  248.8524  214.8228 O   0  0  0  0  0  0  0  0  0  0  0  0
  171.2884  249.6512  215.3496 H   0  0  0  0  0  0  0  0  0  0  0  0
  172.3008  244.6765  213.3026 C   0  0  0  0  0  0  0  0  0  0  0  0
  171.5130  244.1247  213.0290 C   0  0  0  0  0  0  0  0  0  0  0  0
  170.9288  243.5906  213.6400 C   0  0  0  0  0  0  0  0  0  0  0  0
  170.2257  243.1459  213.0850 N   0  0  0  0  0  0  0  0  0  0  0  0
  170.3755  243.4052  212.1308 C   0  0  0  0  0  0  0  0  0  0  0  0
  171.1711  244.0102  212.0963 N   0  0  0  0  0  0  0  0  0  0  0  0
  171.5510  244.4208  211.2862 H   0  0  0  0  0  0  0  0  0  0  0  0
 95 96  1  0  0  0
 95 97  1  0  0  0
 95 98  1  0  0  0
 96 91  1  0  0  0
 96 99  1  0  0  0
 91 92  2  0  0  0
 91 93  1  0  0  0
 93 90  1  0  0  0
 93 94  1  0  0  0
 90103  1  0  0  0
 90 86  1  0  0  0
103104  1  0  0  0
104105  1  0  0  0
105106  2  0  0  0
105107  1  0  0  0
107108  1  0  0  0
107109  1  0  0  0
 86 87  2  0  0  0
 86 88  1  0  0  0
 88 85  1  0  0  0
 88 89  1  0  0  0
 85110  1  0  0  0
 85 81  1  0  0  0
110111  1  0  0  0
111112  1  0  0  0
112113  2  0  0  0
112114  1  0  0  0
114115  1  0  0  0
114116  1  0  0  0
 81 82  2  0  0  0
 81 83  1  0  0  0
 83 79  1  0  0  0
 83 84  1  0  0  0
 79 80  1  0  0  0
 79 75  1  0  0  0
 75 76  2  0  0  0
 75 77  1  0  0  0
 77 74  1  0  0  0
 77 78  1  0  0  0
 74117  1  0  0  0
 74 70  1  0  0  0
117118  1  0  0  0
118119  1  0  0  0
 70 71  2  0  0  0
 70 72  1  0  0  0
 72 69  1  0  0  0
 72 73  1  0  0  0
 69120  1  0  0  0
 69 65  1  0  0  0
120121  1  0  0  0
121125  1  0  0  0
121122  2  0  0  0
122123  1  0  0  0
123124  2  0  0  0
124125  1  0  0  0
125126  1  0  0  0
 65 66  2  0  0  0
 65 67  1  0  0  0
 67  1  1  0  0  0
 67 68  1  0  0  0
  1  2  1  0  0  0
  1 10  1  0  0  0
  2  8  2  0  0  0
  2  3  1  0  0  0
  3  4  2  0  0  0
  4  5  1  0  0  0
  5  6  1  0  0  0
  5  7  2  0  0  0
  6  9  1  0  0  0
  7  8  1  0  0  0
 10 11  2  0  0  0
 10 12  1  0  0  0
 12 14  1  0  0  0
 12 13  1  0  0  0
 14 58  1  0  0  0
 14 15  1  0  0  0
 58 59  1  0  0  0
 59 60  1  0  0  0
 60 61  1  0  0  0
 61 62  1  0  0  0
 62 63  1  0  0  0
 62 64  1  0  0  0
 15 16  2  0  0  0
 15 17  1  0  0  0
 17 19  1  0  0  0
 17 18  1  0  0  0
 19 51  1  0  0  0
 19 20  1  0  0  0
 51 52  1  0  0  0
 52 53  1  0  0  0
 53 54  2  0  0  0
 53 55  1  0  0  0
 55 56  1  0  0  0
 55 57  1  0  0  0
 20 21  2  0  0  0
 20 22  1  0  0  0
 22 24  1  0  0  0
 22 23  1  0  0  0
 24 44  1  0  0  0
 24 25  1  0  0  0
 44 45  1  0  0  0
 45 49  1  0  0  0
 45 46  2  0  0  0
 46 47  1  0  0  0
 47 48  2  0  0  0
 48 49  1  0  0  0
 49 50  1  0  0  0
 25 26  2  0  0  0
 25 27  1  0  0  0
 27 29  1  0  0  0
 27 28  1  0  0  0
 29 41  1  0  0  0
 29 30  1  0  0  0
 41 42  1  0  0  0
 42 43  1  0  0  0
 30 31  2  0  0  0
 30 32  1  0  0  0
 32 36  1  0  0  0
 32 33  1  0  0  0
 33 34  1  0  0  0
 34 35  1  0  0  0
 35 36  1  0  0  0
 36 37  1  0  0  0
 37 38  1  0  0  0
 37 39  2  0  0  0
 38 40  1  0  0  0
 99100  1  0  0  0
 99101  1  0  0  0
100102  1  0  0  0
M  END
> <minimizedAffinity>
-8.34866

$$$$



126129  0  0  0  0  0  0  0  0999 V2000
  169.1871  245.8798  214.8059 C   0  0  0  0  0  0  0  0  0  0  0  0
  168.9180  245.5518  215.7114 C   0  0  0  0  0  0  0  0  0  0  0  0
  169.0495  244.5908  215.9546 C   0  0  0  0  0  0  0  0  0  0  0  0
  168.7803  244.2629  216.8602 C   0  0  0  0  0  0  0  0  0  0  0  0
  168.3797  244.8960  217.5226 C   0  0  0  0  0  0  0  0  0  0  0  0
  168.1106  244.5680  218.4281 O   0  0  0  0  0  0  0  0  0  0  0  0
  168.2482  245.8570  217.2794 C   0  0  0  0  0  0  0  0  0  0  0  0
  168.5174  246.1849  216.3738 C   0  0  0  0  0  0  0  0  0  0  0  0
  168.2338  243.6675  218.6560 H   0  0  0  0  0  0  0  0  0  0  0  0
  170.1297  246.1688  214.6386 C   0  0  0  0  0  0  0  0  0  0  0  0
  170.3229  247.1118  214.3677 O   0  0  0  0  0  0  0  0  0  0  0  0
  170.8791  245.5148  214.7422 N   0  0  0  0  0  0  0  0  0  0  0  0
  170.6888  244.5864  215.0089 H   0  0  0  0  0  0  0  0  0  0  0  0
  171.8217  245.8039  214.5749 C   0  0  0  0  0  0  0  0  0  0  0  0
  172.2385  245.6555  213.6781 C   0  0  0  0  0  0  0  0  0  0  0  0
  172.3573  246.4235  213.0488 O   0  0  0  0  0  0  0  0  0  0  0  0
  172.5364  244.7392  213.4106 N   0  0  0  0  0  0  0  0  0  0  0  0
  172.4194  243.9831  214.0302 H   0  0  0  0  0  0  0  0  0  0  0  0
  172.9532  244.5908  212.5138 C   0  0  0  0  0  0  0  0  0  0  0  0
  172.4674  244.0618  211.8180 C   0  0  0  0  0  0  0  0  0  0  0  0
  171.9180  244.5307  211.1265 O   0  0  0  0  0  0  0  0  0  0  0  0
  172.5309  243.0638  211.8138 N   0  0  0  0  0  0  0  0  0  0  0  0
  173.0718  242.6021  212.4947 H   0  0  0  0  0  0  0  0  0  0  0  0
  172.0451  242.5348  211.1181 C   0  0  0  0  0  0  0  0  0  0  0  0
  172.4648  242.3807  210.2236 C   0  0  0  0  0  0  0  0  0  0  0  0
  171.9018  242.3988  209.3974 O   0  0  0  0  0  0  0  0  0  0  0  0
  173.4475  242.2085  210.1554 N   0  0  0  0  0  0  0  0  0  0  0  0
  174.0017  242.1906  210.9688 H   0  0  0  0  0  0  0  0  0  0  0  0
  173.8672  242.0544  209.2609 C   0  0  0  0  0  0  0  0  0  0  0  0
  174.4489  242.7584  208.8536 C   0  0  0  0  0  0  0  0  0  0  0  0
  174.1133  243.3000  208.0829 O   0  0  0  0  0  0  0  0  0  0  0  0
  175.3664  242.9208  209.2170 N   0  0  0  0  0  0  0  0  0  0  0  0
  175.7906  242.4344  209.9808 C   0  0  0  0  0  0  0  0  0  0  0  0
  176.7070  242.8112  210.1162 C   0  0  0  0  0  0  0  0  0  0  0  0
  176.8490  243.5304  209.4361 C   0  0  0  0  0  0  0  0  0  0  0  0
  176.0205  243.5981  208.8803 C   0  0  0  0  0  0  0  0  0  0  0  0
  175.8721  244.2319  208.1212 C   0  0  0  0  0  0  0  0  0  0  0  0
  175.5378  245.1572  208.3004 O   0  0  0  0  0  0  0  0  0  0  0  0
  176.0581  243.9404  207.1829 O   0  0  0  0  0  0  0  0  0  0  0  0
  175.3636  245.4303  209.1796 H   0  0  0  0  0  0  0  0  0  0  0  0
  173.7052  241.1962  208.7737 C   0  0  0  0  0  0  0  0  0  0  0  0
  174.1128  240.3466  209.1084 S   0  0  0  0  0  0  0  0  0  0  0  0
  174.8874  240.3581  210.2261 H   0  0  0  0  0  0  0  0  0  0  0  0
  171.1396  242.1598  211.3168 C   0  0  0  0  0  0  0  0  0  0  0  0
  171.0493  241.3561  211.9048 C   0  0  0  0  0  0  0  0  0  0  0  0
  170.6954  241.3488  212.8401 C   0  0  0  0  0  0  0  0  0  0  0  0
  170.7243  240.4068  213.1742 N   0  0  0  0  0  0  0  0  0  0  0  0
  171.0961  239.8317  212.4454 C   0  0  0  0  0  0  0  0  0  0  0  0
  171.2969  240.4185  211.6609 N   0  0  0  0  0  0  0  0  0  0  0  0
  171.6725  240.1246  210.7996 H   0  0  0  0  0  0  0  0  0  0  0  0
  173.8558  244.9715  212.3128 C   0  0  0  0  0  0  0  0  0  0  0  0
  174.6692  244.5869  212.7492 C   0  0  0  0  0  0  0  0  0  0  0  0
  175.5561  245.0349  212.6367 C   0  0  0  0  0  0  0  0  0  0  0  0
  175.6925  245.6955  211.8984 O   0  0  0  0  0  0  0  0  0  0  0  0
  176.3066  244.8224  213.2624 N   0  0  0  0  0  0  0  0  0  0  0  0
  176.1722  244.1720  213.9893 H   0  0  0  0  0  0  0  0  0  0  0  0
  177.1798  245.2634  213.1517 H   0  0  0  0  0  0  0  0  0  0  0  0
  172.3475  246.2412  215.3045 C   0  0  0  0  0  0  0  0  0  0  0  0
  172.9116  245.6862  215.9160 C   0  0  0  0  0  0  0  0  0  0  0  0
  173.7564  246.0628  216.2961 C   0  0  0  0  0  0  0  0  0  0  0  0
  174.5634  245.4805  216.3947 C   0  0  0  0  0  0  0  0  0  0  0  0
  175.4745  245.8556  216.2241 N   0  0  0  0  0  0  0  0  0  0  0  0
  175.5807  246.8323  215.9495 H   0  0  0  0  0  0  0  0  0  0  0  0
  176.2976  245.2617  216.3248 H   0  0  0  0  0  0  0  0  0  0  0  0
  168.5066  245.2126  213.3596 C   0  0  0  0  0  0  0  0  0  0  0  0
  169.1730  244.4675  213.3897 O   0  0  0  0  0  0  0  0  0  0  0  0
  168.5137  245.9187  214.0677 N   0  0  0  0  0  0  0  0  0  0  0  0
  167.8577  246.6522  214.0380 H   0  0  0  0  0  0  0  0  0  0  0  0
  167.8332  245.2515  212.6214 C   0  0  0  0  0  0  0  0  0  0  0  0
  168.0450  246.1130  211.1338 C   0  0  0  0  0  0  0  0  0  0  0  0
  167.6505  246.9314  211.5516 O   0  0  0  0  0  0  0  0  0  0  0  0
  168.1363  245.2731  211.6687 N   0  0  0  0  0  0  0  0  0  0  0  0
  168.5247  244.4673  211.2574 H   0  0  0  0  0  0  0  0  0  0  0  0
  168.3481  246.1345  210.1811 C   0  0  0  0  0  0  0  0  0  0  0  0
  169.8197  246.8327  209.5921 C   0  0  0  0  0  0  0  0  0  0  0  0
  170.2794  245.9506  209.6950 O   0  0  0  0  0  0  0  0  0  0  0  0
  168.8541  246.9246  209.8351 N   0  0  0  0  0  0  0  0  0  0  0  0
  168.4015  247.7930  209.7338 H   0  0  0  0  0  0  0  0  0  0  0  0
  170.3257  247.6228  209.2461 C   0  0  0  0  0  0  0  0  0  0  0  0
  169.8841  248.5189  209.2015 C   0  0  0  0  0  0  0  0  0  0  0  0
  171.5348  247.7792  208.0158 C   0  0  0  0  0  0  0  0  0  0  0  0
  170.8487  248.1476  207.3884 O   0  0  0  0  0  0  0  0  0  0  0  0
  171.2733  247.5168  208.9446 N   0  0  0  0  0  0  0  0  0  0  0  0
  171.9487  247.1541  209.5623 H   0  0  0  0  0  0  0  0  0  0  0  0
  172.4824  247.6733  207.7143 C   0  0  0  0  0  0  0  0  0  0  0  0
  173.6364  248.8331  208.2826 C   0  0  0  0  0  0  0  0  0  0  0  0
  173.2898  249.5008  207.6238 O   0  0  0  0  0  0  0  0  0  0  0  0
  173.2328  247.9194  208.3279 N   0  0  0  0  0  0  0  0  0  0  0  0
  173.5740  247.2621  208.9765 H   0  0  0  0  0  0  0  0  0  0  0  0
  174.3868  249.0793  208.8961 C   0  0  0  0  0  0  0  0  0  0  0  0
  175.9226  249.5202  208.2276 C   0  0  0  0  0  0  0  0  0  0  0  0
  176.1448  248.5536  208.1003 O   0  0  0  0  0  0  0  0  0  0  0  0
  175.0436  249.7831  208.6255 N   0  0  0  0  0  0  0  0  0  0  0  0
  174.8248  250.7348  208.7508 H   0  0  0  0  0  0  0  0  0  0  0  0
  176.9621  250.8415  208.6442 N   0  0  0  0  0  0  0  0  0  0  0  0
  176.5794  250.2241  207.9570 C   0  0  0  0  0  0  0  0  0  0  0  0
  177.6320  251.5595  208.3683 H   0  0  0  0  0  0  0  0  0  0  0  0
  176.6826  250.7533  209.6213 H   0  0  0  0  0  0  0  0  0  0  0  0
  176.8534  250.3106  206.9992 C   0  0  0  0  0  0  0  0  0  0  0  0
  176.1765  250.1913  206.2728 O   0  0  0  0  0  0  0  0  0  0  0  0
  177.8042  250.5164  206.7678 C   0  0  0  0  0  0  0  0  0  0  0  0
  175.2542  249.9917  206.4973 H   0  0  0  0  0  0  0  0  0  0  0  0
  174.4803  248.6216  209.7803 C   0  0  0  0  0  0  0  0  0  0  0  0
  174.2705  249.1159  210.6238 C   0  0  0  0  0  0  0  0  0  0  0  0
  174.6744  248.8209  211.4899 C   0  0  0  0  0  0  0  0  0  0  0  0
  175.6636  248.8767  211.6250 O   0  0  0  0  0  0  0  0  0  0  0  0
  174.0889  248.4702  212.2208 N   0  0  0  0  0  0  0  0  0  0  0  0
  173.1150  248.4153  212.0877 H   0  0  0  0  0  0  0  0  0  0  0  0
  174.4864  248.1798  213.0733 H   0  0  0  0  0  0  0  0  0  0  0  0
  172.6796  247.3212  206.7994 C   0  0  0  0  0  0  0  0  0  0  0  0
  172.8366  246.3431  206.6632 C   0  0  0  0  0  0  0  0  0  0  0  0
  173.3749  246.0272  205.8819 C   0  0  0  0  0  0  0  0  0  0  0  0
  173.7961  246.6908  205.2637 O   0  0  0  0  0  0  0  0  0  0  0  0
  173.4919  245.0475  205.7186 N   0  0  0  0  0  0  0  0  0  0  0  0
  173.0772  244.3941  206.3272 H   0  0  0  0  0  0  0  0  0  0  0  0
  174.0219  244.7365  204.9494 H   0  0  0  0  0  0  0  0  0  0  0  0
  168.1453  245.3659  209.5744 C   0  0  0  0  0  0  0  0  0  0  0  0
  167.2589  245.3124  209.1145 O   0  0  0  0  0  0  0  0  0  0  0  0
  167.0622  244.5668  208.5259 H   0  0  0  0  0  0  0  0  0  0  0  0
  166.8566  245.2689  212.8359 C   0  0  0  0  0  0  0  0  0  0  0  0
  166.3034  244.4446  212.7153 C   0  0  0  0  0  0  0  0  0  0  0  0
  166.0681  243.7851  213.4292 C   0  0  0  0  0  0  0  0  0  0  0  0
  165.5077  243.0679  213.0148 N   0  0  0  0  0  0  0  0  0  0  0  0
  165.3966  243.2844  212.0448 C   0  0  0  0  0  0  0  0  0  0  0  0
  165.8884  244.1353  211.8598 N   0  0  0  0  0  0  0  0  0  0  0  0
  165.9527  244.5887  210.9883 H   0  0  0  0  0  0  0  0  0  0  0  0
 95 96  1  0  0  0
 95 97  1  0  0  0
 95 98  1  0  0  0
 96 91  1  0  0  0
 96 99  1  0  0  0
 91 92  2  0  0  0
 91 93  1  0  0  0
 93 90  1  0  0  0
 93 94  1  0  0  0
 90103  1  0  0  0
 90 86  1  0  0  0
103104  1  0  0  0
104105  1  0  0  0
105106  2  0  0  0
105107  1  0  0  0
107108  1  0  0  0
107109  1  0  0  0
 86 87  2  0  0  0
 86 88  1  0  0  0
 88 85  1  0  0  0
 88 89  1  0  0  0
 85110  1  0  0  0
 85 81  1  0  0  0
110111  1  0  0  0
111112  1  0  0  0
112113  2  0  0  0
112114  1  0  0  0
114115  1  0  0  0
114116  1  0  0  0
 81 82  2  0  0  0
 81 83  1  0  0  0
 83 79  1  0  0  0
 83 84  1  0  0  0
 79 80  1  0  0  0
 79 75  1  0  0  0
 75 76  2  0  0  0
 75 77  1  0  0  0
 77 74  1  0  0  0
 77 78  1  0  0  0
 74117  1  0  0  0
 74 70  1  0  0  0
117118  1  0  0  0
118119  1  0  0  0
 70 71  2  0  0  0
 70 72  1  0  0  0
 72 69  1  0  0  0
 72 73  1  0  0  0
 69120  1  0  0  0
 69 65  1  0  0  0
120121  1  0  0  0
121125  1  0  0  0
121122  2  0  0  0
122123  1  0  0  0
123124  2  0  0  0
124125  1  0  0  0
125126  1  0  0  0
 65 66  2  0  0  0
 65 67  1  0  0  0
 67  1  1  0  0  0
 67 68  1  0  0  0
  1  2  1  0  0  0
  1 10  1  0  0  0
  2  8  2  0  0  0
  2  3  1  0  0  0
  3  4  2  0  0  0
  4  5  1  0  0  0
  5  6  1  0  0  0
  5  7  2  0  0  0
  6  9  1  0  0  0
  7  8  1  0  0  0
 10 11  2  0  0  0
 10 12  1  0  0  0
 12 14  1  0  0  0
 12 13  1  0  0  0
 14 58  1  0  0  0
 14 15  1  0  0  0
 58 59  1  0  0  0
 59 60  1  0  0  0
 60 61  1  0  0  0
 61 62  1  0  0  0
 62 63  1  0  0  0
 62 64  1  0  0  0
 15 16  2  0  0  0
 15 17  1  0  0  0
 17 19  1  0  0  0
 17 18  1  0  0  0
 19 51  1  0  0  0
 19 20  1  0  0  0
 51 52  1  0  0  0
 52 53  1  0  0  0
 53 54  2  0  0  0
 53 55  1  0  0  0
 55 56  1  0  0  0
 55 57  1  0  0  0
 20 21  2  0  0  0
 20 22  1  0  0  0
 22 24  1  0  0  0
 22 23  1  0  0  0
 24 44  1  0  0  0
 24 25  1  0  0  0
 44 45  1  0  0  0
 45 49  1  0  0  0
 45 46  2  0  0  0
 46 47  1  0  0  0
 47 48  2  0  0  0
 48 49  1  0  0  0
 49 50  1  0  0  0
 25 26  2  0  0  0
 25 27  1  0  0  0
 27 29  1  0  0  0
 27 28  1  0  0  0
 29 41  1  0  0  0
 29 30  1  0  0  0
 41 42  1  0  0  0
 42 43  1  0  0  0
 30 31  2  0  0  0
 30 32  1  0  0  0
 32 36  1  0  0  0
 32 33  1  0  0  0
 33 34  1  0  0  0
 34 35  1  0  0  0
 35 36  1  0  0  0
 36 37  1  0  0  0
 37 38  1  0  0  0
 37 39  2  0  0  0
 38 40  1  0  0  0
 99100  1  0  0  0
 99101  1  0  0  0
100102  1  0  0  0
M  END
> <minimizedAffinity>
-8.34672

$$$$



126129  0  0  0  0  0  0  0  0999 V2000
  173.1669  244.1329  210.2046 C   0  0  0  0  0  0  0  0  0  0  0  0
  173.1021  243.1635  210.4413 C   0  0  0  0  0  0  0  0  0  0  0  0
  173.7436  242.7649  211.0967 C   0  0  0  0  0  0  0  0  0  0  0  0
  173.6788  241.7954  211.3334 C   0  0  0  0  0  0  0  0  0  0  0  0
  172.9725  241.2246  210.9147 C   0  0  0  0  0  0  0  0  0  0  0  0
  172.9077  240.2552  211.1513 O   0  0  0  0  0  0  0  0  0  0  0  0
  172.3310  241.6233  210.2592 C   0  0  0  0  0  0  0  0  0  0  0  0
  172.3958  242.5927  210.0226 C   0  0  0  0  0  0  0  0  0  0  0  0
  173.5088  239.8817  211.7655 H   0  0  0  0  0  0  0  0  0  0  0  0
  173.4828  244.4057  209.2959 C   0  0  0  0  0  0  0  0  0  0  0  0
  173.2705  243.8370  208.5012 O   0  0  0  0  0  0  0  0  0  0  0  0
  174.0110  245.2471  209.1819 N   0  0  0  0  0  0  0  0  0  0  0  0
  174.2199  245.8070  209.9643 H   0  0  0  0  0  0  0  0  0  0  0  0
  174.3269  245.5199  208.2731 C   0  0  0  0  0  0  0  0  0  0  0  0
  173.7194  246.0312  207.6652 C   0  0  0  0  0  0  0  0  0  0  0  0
  173.6454  245.7750  206.7014 O   0  0  0  0  0  0  0  0  0  0  0  0
  173.1859  246.7985  208.0210 N   0  0  0  0  0  0  0  0  0  0  0  0
  173.2588  247.0506  208.9699 H   0  0  0  0  0  0  0  0  0  0  0  0
  172.5784  247.3097  207.4131 C   0  0  0  0  0  0  0  0  0  0  0  0
  172.8425  248.2189  207.0914 C   0  0  0  0  0  0  0  0  0  0  0  0
  173.2085  248.8905  207.7357 O   0  0  0  0  0  0  0  0  0  0  0  0
  172.7406  248.4567  206.1254 N   0  0  0  0  0  0  0  0  0  0  0  0
  172.3803  247.7956  205.4911 H   0  0  0  0  0  0  0  0  0  0  0  0
  173.0047  249.3660  205.8037 C   0  0  0  0  0  0  0  0  0  0  0  0
  173.9304  249.5258  205.4611 C   0  0  0  0  0  0  0  0  0  0  0  0
  174.3928  248.8213  204.9227 O   0  0  0  0  0  0  0  0  0  0  0  0
  174.3938  250.3901  205.6567 N   0  0  0  0  0  0  0  0  0  0  0  0
  173.9385  251.0836  206.1868 H   0  0  0  0  0  0  0  0  0  0  0  0
  175.3195  250.5499  205.3141 C   0  0  0  0  0  0  0  0  0  0  0  0
  176.0856  250.6129  205.9538 C   0  0  0  0  0  0  0  0  0  0  0  0
  176.8592  249.9847  205.8709 O   0  0  0  0  0  0  0  0  0  0  0  0
  176.0779  251.3041  206.6764 N   0  0  0  0  0  0  0  0  0  0  0  0
  175.3542  251.9743  206.8411 C   0  0  0  0  0  0  0  0  0  0  0  0
  175.6217  252.5308  207.6277 C   0  0  0  0  0  0  0  0  0  0  0  0
  176.5107  252.2045  207.9491 C   0  0  0  0  0  0  0  0  0  0  0  0
  176.7926  251.4464  207.3612 C   0  0  0  0  0  0  0  0  0  0  0  0
  177.6403  250.9225  207.4437 C   0  0  0  0  0  0  0  0  0  0  0  0
  177.6526  250.0703  207.9668 O   0  0  0  0  0  0  0  0  0  0  0  0
  178.4758  251.2508  207.0029 O   0  0  0  0  0  0  0  0  0  0  0  0
  176.8698  249.7628  208.3798 H   0  0  0  0  0  0  0  0  0  0  0  0
  175.4793  250.6467  204.3316 C   0  0  0  0  0  0  0  0  0  0  0  0
  175.3746  251.5395  203.8936 S   0  0  0  0  0  0  0  0  0  0  0  0
  175.0149  252.6221  204.6339 H   0  0  0  0  0  0  0  0  0  0  0  0
  172.3430  250.1155  205.8248 C   0  0  0  0  0  0  0  0  0  0  0  0
  171.6198  250.1635  205.1358 C   0  0  0  0  0  0  0  0  0  0  0  0
  171.6198  250.7465  204.3233 C   0  0  0  0  0  0  0  0  0  0  0  0
  170.7697  250.5803  203.8237 N   0  0  0  0  0  0  0  0  0  0  0  0
  170.2442  249.8946  204.3274 C   0  0  0  0  0  0  0  0  0  0  0  0
  170.7697  249.6370  205.1384 N   0  0  0  0  0  0  0  0  0  0  0  0
  170.4977  248.9804  205.8196 H   0  0  0  0  0  0  0  0  0  0  0  0
  171.7069  246.9116  207.1268 C   0  0  0  0  0  0  0  0  0  0  0  0
  170.8958  247.0177  207.7019 C   0  0  0  0  0  0  0  0  0  0  0  0
  170.0057  246.7007  207.3744 C   0  0  0  0  0  0  0  0  0  0  0  0
  169.6684  246.9945  206.4800 O   0  0  0  0  0  0  0  0  0  0  0  0
  169.4529  246.0900  207.9414 N   0  0  0  0  0  0  0  0  0  0  0  0
  169.7850  245.8008  208.8219 H   0  0  0  0  0  0  0  0  0  0  0  0
  168.5766  245.7779  207.6190 H   0  0  0  0  0  0  0  0  0  0  0  0
  175.2503  245.2815  207.9724 C   0  0  0  0  0  0  0  0  0  0  0  0
  176.0438  245.6997  208.4146 C   0  0  0  0  0  0  0  0  0  0  0  0
  176.8508  245.1463  208.6206 C   0  0  0  0  0  0  0  0  0  0  0  0
  177.4762  244.8816  207.8865 C   0  0  0  0  0  0  0  0  0  0  0  0
  178.3326  245.3809  207.7549 N   0  0  0  0  0  0  0  0  0  0  0  0
  178.5683  246.1601  208.3695 H   0  0  0  0  0  0  0  0  0  0  0  0
  178.9704  245.1109  207.0062 H   0  0  0  0  0  0  0  0  0  0  0  0
  171.9789  245.1774  210.9101 C   0  0  0  0  0  0  0  0  0  0  0  0
  171.2930  244.8286  210.2714 O   0  0  0  0  0  0  0  0  0  0  0  0
  172.9158  244.8296  210.8767 N   0  0  0  0  0  0  0  0  0  0  0  0
  173.5911  245.1729  211.5054 H   0  0  0  0  0  0  0  0  0  0  0  0
  171.7278  245.8741  211.5821 C   0  0  0  0  0  0  0  0  0  0  0  0
  172.1863  247.5128  211.2594 C   0  0  0  0  0  0  0  0  0  0  0  0
  171.4319  247.5957  210.6083 O   0  0  0  0  0  0  0  0  0  0  0  0
  172.3343  246.6520  211.7463 N   0  0  0  0  0  0  0  0  0  0  0  0
  173.0771  246.5704  212.3873 H   0  0  0  0  0  0  0  0  0  0  0  0
  172.7928  248.2908  211.4235 C   0  0  0  0  0  0  0  0  0  0  0  0
  174.5103  248.0966  211.5356 C   0  0  0  0  0  0  0  0  0  0  0  0
  174.5797  248.1357  210.5388 O   0  0  0  0  0  0  0  0  0  0  0  0
  173.6168  248.1741  211.9779 N   0  0  0  0  0  0  0  0  0  0  0  0
  173.5484  248.1356  212.9593 H   0  0  0  0  0  0  0  0  0  0  0  0
  175.3343  247.9799  212.0900 C   0  0  0  0  0  0  0  0  0  0  0  0
  175.9308  248.7620  212.2698 C   0  0  0  0  0  0  0  0  0  0  0  0
  176.4087  246.9544  212.9809 C   0  0  0  0  0  0  0  0  0  0  0  0
  177.0282  247.7265  213.1226 O   0  0  0  0  0  0  0  0  0  0  0  0
  175.5617  247.0811  212.4646 N   0  0  0  0  0  0  0  0  0  0  0  0
  174.9519  246.3209  212.3251 H   0  0  0  0  0  0  0  0  0  0  0  0
  176.6362  246.0555  213.3556 C   0  0  0  0  0  0  0  0  0  0  0  0
  176.5514  245.8976  215.0783 C   0  0  0  0  0  0  0  0  0  0  0  0
  175.5528  245.8817  215.0277 O   0  0  0  0  0  0  0  0  0  0  0  0
  177.0931  245.9845  214.2423 N   0  0  0  0  0  0  0  0  0  0  0  0
  178.0762  246.0002  214.2921 H   0  0  0  0  0  0  0  0  0  0  0  0
  177.0083  245.8266  215.9650 C   0  0  0  0  0  0  0  0  0  0  0  0
  177.6292  247.2385  216.7530 C   0  0  0  0  0  0  0  0  0  0  0  0
  176.7164  247.4426  217.1067 O   0  0  0  0  0  0  0  0  0  0  0  0
  177.7751  246.4305  216.1821 N   0  0  0  0  0  0  0  0  0  0  0  0
  178.6738  246.2296  215.8339 H   0  0  0  0  0  0  0  0  0  0  0  0
  178.8630  247.7610  217.8507 N   0  0  0  0  0  0  0  0  0  0  0  0
  178.3962  247.8425  216.9701 C   0  0  0  0  0  0  0  0  0  0  0  0
  179.6452  248.3769  218.0722 H   0  0  0  0  0  0  0  0  0  0  0  0
  178.5568  247.0619  218.5275 H   0  0  0  0  0  0  0  0  0  0  0  0
  178.6963  248.5278  216.3066 C   0  0  0  0  0  0  0  0  0  0  0  0
  178.0586  249.2298  215.9897 O   0  0  0  0  0  0  0  0  0  0  0  0
  179.6342  248.5111  215.9601 C   0  0  0  0  0  0  0  0  0  0  0  0
  177.1488  249.2460  216.3259 H   0  0  0  0  0  0  0  0  0  0  0  0
  176.6983  245.1517  216.6346 C   0  0  0  0  0  0  0  0  0  0  0  0
  177.3259  244.4435  216.9581 C   0  0  0  0  0  0  0  0  0  0  0  0
  177.0165  243.7698  217.6292 C   0  0  0  0  0  0  0  0  0  0  0  0
  176.1136  243.3500  217.5367 O   0  0  0  0  0  0  0  0  0  0  0  0
  177.6100  243.5158  218.3929 N   0  0  0  0  0  0  0  0  0  0  0  0
  178.4989  243.9291  218.4840 H   0  0  0  0  0  0  0  0  0  0  0  0
  177.3055  242.8526  219.0536 H   0  0  0  0  0  0  0  0  0  0  0  0
  176.4069  245.2277  212.8436 C   0  0  0  0  0  0  0  0  0  0  0  0
  177.1258  244.7147  212.3746 C   0  0  0  0  0  0  0  0  0  0  0  0
  177.0387  243.7254  212.2573 C   0  0  0  0  0  0  0  0  0  0  0  0
  176.9660  243.1314  213.0584 O   0  0  0  0  0  0  0  0  0  0  0  0
  177.0242  243.3302  211.3387 N   0  0  0  0  0  0  0  0  0  0  0  0
  177.0958  243.9150  210.5500 H   0  0  0  0  0  0  0  0  0  0  0  0
  176.9385  242.3562  211.2232 H   0  0  0  0  0  0  0  0  0  0  0  0
  172.5752  249.1854  211.0333 C   0  0  0  0  0  0  0  0  0  0  0  0
  172.2943  249.9365  211.6306 O   0  0  0  0  0  0  0  0  0  0  0  0
  172.0832  250.8043  211.2520 H   0  0  0  0  0  0  0  0  0  0  0  0
  170.8702  245.7927  212.0900 C   0  0  0  0  0  0  0  0  0  0  0  0
  170.8754  245.4451  213.0276 C   0  0  0  0  0  0  0  0  0  0  0  0
  170.9932  245.9919  213.8565 C   0  0  0  0  0  0  0  0  0  0  0  0
  170.9543  245.3744  214.6423 N   0  0  0  0  0  0  0  0  0  0  0  0
  170.8125  244.4460  214.2988 C   0  0  0  0  0  0  0  0  0  0  0  0
  170.7637  244.4898  213.3009 N   0  0  0  0  0  0  0  0  0  0  0  0
  170.6293  243.7262  212.6942 H   0  0  0  0  0  0  0  0  0  0  0  0
 95 96  1  0  0  0
 95 97  1  0  0  0
 95 98  1  0  0  0
 96 91  1  0  0  0
 96 99  1  0  0  0
 91 92  2  0  0  0
 91 93  1  0  0  0
 93 90  1  0  0  0
 93 94  1  0  0  0
 90103  1  0  0  0
 90 86  1  0  0  0
103104  1  0  0  0
104105  1  0  0  0
105106  2  0  0  0
105107  1  0  0  0
107108  1  0  0  0
107109  1  0  0  0
 86 87  2  0  0  0
 86 88  1  0  0  0
 88 85  1  0  0  0
 88 89  1  0  0  0
 85110  1  0  0  0
 85 81  1  0  0  0
110111  1  0  0  0
111112  1  0  0  0
112113  2  0  0  0
112114  1  0  0  0
114115  1  0  0  0
114116  1  0  0  0
 81 82  2  0  0  0
 81 83  1  0  0  0
 83 79  1  0  0  0
 83 84  1  0  0  0
 79 80  1  0  0  0
 79 75  1  0  0  0
 75 76  2  0  0  0
 75 77  1  0  0  0
 77 74  1  0  0  0
 77 78  1  0  0  0
 74117  1  0  0  0
 74 70  1  0  0  0
117118  1  0  0  0
118119  1  0  0  0
 70 71  2  0  0  0
 70 72  1  0  0  0
 72 69  1  0  0  0
 72 73  1  0  0  0
 69120  1  0  0  0
 69 65  1  0  0  0
120121  1  0  0  0
121125  1  0  0  0
121122  2  0  0  0
122123  1  0  0  0
123124  2  0  0  0
124125  1  0  0  0
125126  1  0  0  0
 65 66  2  0  0  0
 65 67  1  0  0  0
 67  1  1  0  0  0
 67 68  1  0  0  0
  1  2  1  0  0  0
  1 10  1  0  0  0
  2  8  2  0  0  0
  2  3  1  0  0  0
  3  4  2  0  0  0
  4  5  1  0  0  0
  5  6  1  0  0  0
  5  7  2  0  0  0
  6  9  1  0  0  0
  7  8  1  0  0  0
 10 11  2  0  0  0
 10 12  1  0  0  0
 12 14  1  0  0  0
 12 13  1  0  0  0
 14 58  1  0  0  0
 14 15  1  0  0  0
 58 59  1  0  0  0
 59 60  1  0  0  0
 60 61  1  0  0  0
 61 62  1  0  0  0
 62 63  1  0  0  0
 62 64  1  0  0  0
 15 16  2  0  0  0
 15 17  1  0  0  0
 17 19  1  0  0  0
 17 18  1  0  0  0
 19 51  1  0  0  0
 19 20  1  0  0  0
 51 52  1  0  0  0
 52 53  1  0  0  0
 53 54  2  0  0  0
 53 55  1  0  0  0
 55 56  1  0  0  0
 55 57  1  0  0  0
 20 21  2  0  0  0
 20 22  1  0  0  0
 22 24  1  0  0  0
 22 23  1  0  0  0
 24 44  1  0  0  0
 24 25  1  0  0  0
 44 45  1  0  0  0
 45 49  1  0  0  0
 45 46  2  0  0  0
 46 47  1  0  0  0
 47 48  2  0  0  0
 48 49  1  0  0  0
 49 50  1  0  0  0
 25 26  2  0  0  0
 25 27  1  0  0  0
 27 29  1  0  0  0
 27 28  1  0  0  0
 29 41  1  0  0  0
 29 30  1  0  0  0
 41 42  1  0  0  0
 42 43  1  0  0  0
 30 31  2  0  0  0
 30 32  1  0  0  0
 32 36  1  0  0  0
 32 33  1  0  0  0
 33 34  1  0  0  0
 34 35  1  0  0  0
 35 36  1  0  0  0
 36 37  1  0  0  0
 37 38  1  0  0  0
 37 39  2  0  0  0
 38 40  1  0  0  0
 99100  1  0  0  0
 99101  1  0  0  0
100102  1  0  0  0
M  END
> <minimizedAffinity>
-8.34367

$$$$



126129  0  0  0  0  0  0  0  0999 V2000
  171.1621  248.7370  207.0160 C   0  0  0  0  0  0  0  0  0  0  0  0
  170.4128  249.1930  206.5359 C   0  0  0  0  0  0  0  0  0  0  0  0
  169.7922  249.7967  207.0363 C   0  0  0  0  0  0  0  0  0  0  0  0
  169.0429  250.2527  206.5561 C   0  0  0  0  0  0  0  0  0  0  0  0
  168.9142  250.1051  205.5755 C   0  0  0  0  0  0  0  0  0  0  0  0
  168.1649  250.5611  205.0953 O   0  0  0  0  0  0  0  0  0  0  0  0
  169.5348  249.5015  205.0750 C   0  0  0  0  0  0  0  0  0  0  0  0
  170.2841  249.0454  205.5552 C   0  0  0  0  0  0  0  0  0  0  0  0
  167.5834  251.1268  205.5642 H   0  0  0  0  0  0  0  0  0  0  0  0
  171.0856  247.7698  207.2580 C   0  0  0  0  0  0  0  0  0  0  0  0
  170.3441  247.2165  206.8784 O   0  0  0  0  0  0  0  0  0  0  0  0
  171.7506  247.3558  207.8796 N   0  0  0  0  0  0  0  0  0  0  0  0
  172.4807  247.9004  208.2532 H   0  0  0  0  0  0  0  0  0  0  0  0
  171.6742  246.3885  208.1216 C   0  0  0  0  0  0  0  0  0  0  0  0
  171.3266  246.1241  209.0212 C   0  0  0  0  0  0  0  0  0  0  0  0
  170.5642  245.4811  209.0934 O   0  0  0  0  0  0  0  0  0  0  0  0
  171.7414  246.5027  209.8486 N   0  0  0  0  0  0  0  0  0  0  0  0
  172.4920  247.1357  209.7774 H   0  0  0  0  0  0  0  0  0  0  0  0
  171.3938  246.2384  210.7481 C   0  0  0  0  0  0  0  0  0  0  0  0
  171.8725  245.5433  211.2846 C   0  0  0  0  0  0  0  0  0  0  0  0
  172.8717  245.5430  211.3247 O   0  0  0  0  0  0  0  0  0  0  0  0
  171.3519  244.8485  211.7809 N   0  0  0  0  0  0  0  0  0  0  0  0
  170.3682  244.8488  211.7414 H   0  0  0  0  0  0  0  0  0  0  0  0
  171.8305  244.1534  212.3174 C   0  0  0  0  0  0  0  0  0  0  0  0
  171.8075  243.1961  212.0295 C   0  0  0  0  0  0  0  0  0  0  0  0
  171.5311  242.4858  212.6769 O   0  0  0  0  0  0  0  0  0  0  0  0
  172.0608  242.9489  211.0942 N   0  0  0  0  0  0  0  0  0  0  0  0
  172.3329  243.6482  210.4569 H   0  0  0  0  0  0  0  0  0  0  0  0
  172.0378  241.9916  210.8063 C   0  0  0  0  0  0  0  0  0  0  0  0
  172.8798  241.4522  210.7958 C   0  0  0  0  0  0  0  0  0  0  0  0
  172.9425  240.6126  211.3353 O   0  0  0  0  0  0  0  0  0  0  0  0
  173.6590  241.7525  210.2456 N   0  0  0  0  0  0  0  0  0  0  0  0
  173.6944  242.5730  209.6752 C   0  0  0  0  0  0  0  0  0  0  0  0
  174.5970  242.6125  209.2464 C   0  0  0  0  0  0  0  0  0  0  0  0
  175.1193  241.8163  209.5518 C   0  0  0  0  0  0  0  0  0  0  0  0
  174.5396  241.2848  210.1694 C   0  0  0  0  0  0  0  0  0  0  0  0
  174.7956  240.4349  210.6298 C   0  0  0  0  0  0  0  0  0  0  0  0
  174.7223  239.5626  210.1463 O   0  0  0  0  0  0  0  0  0  0  0  0
  175.1249  240.4572  211.5739 O   0  0  0  0  0  0  0  0  0  0  0  0
  174.4138  239.5417  209.2619 H   0  0  0  0  0  0  0  0  0  0  0  0
  171.1726  241.5735  210.5290 C   0  0  0  0  0  0  0  0  0  0  0  0
  170.6596  241.9506  209.7579 S   0  0  0  0  0  0  0  0  0  0  0  0
  171.1383  243.0321  209.0864 H   0  0  0  0  0  0  0  0  0  0  0  0
  172.3322  244.4157  213.1417 C   0  0  0  0  0  0  0  0  0  0  0  0
  171.8362  244.7421  213.9463 C   0  0  0  0  0  0  0  0  0  0  0  0
  172.2337  245.2276  214.7250 C   0  0  0  0  0  0  0  0  0  0  0  0
  171.4987  245.4258  215.3735 N   0  0  0  0  0  0  0  0  0  0  0  0
  170.6469  245.0628  214.9956 C   0  0  0  0  0  0  0  0  0  0  0  0
  170.8556  244.6402  214.1135 N   0  0  0  0  0  0  0  0  0  0  0  0
  170.2089  244.2010  213.5150 H   0  0  0  0  0  0  0  0  0  0  0  0
  170.5676  246.6691  211.1113 C   0  0  0  0  0  0  0  0  0  0  0  0
  170.5927  247.6212  211.4158 C   0  0  0  0  0  0  0  0  0  0  0  0
  169.9115  247.9560  212.0669 C   0  0  0  0  0  0  0  0  0  0  0  0
  170.1507  248.0587  213.0324 O   0  0  0  0  0  0  0  0  0  0  0  0
  168.9910  248.1882  211.7524 N   0  0  0  0  0  0  0  0  0  0  0  0
  168.7555  248.0871  210.8018 H   0  0  0  0  0  0  0  0  0  0  0  0
  168.3204  248.5178  212.3934 H   0  0  0  0  0  0  0  0  0  0  0  0
  171.9453  245.6856  207.4640 C   0  0  0  0  0  0  0  0  0  0  0  0
  172.9024  245.6038  207.1857 C   0  0  0  0  0  0  0  0  0  0  0  0
  173.1444  245.0623  206.3806 C   0  0  0  0  0  0  0  0  0  0  0  0
  174.0446  244.6311  206.3202 C   0  0  0  0  0  0  0  0  0  0  0  0
  174.2084  243.9073  205.6499 N   0  0  0  0  0  0  0  0  0  0  0  0
  173.4572  243.6088  205.0278 H   0  0  0  0  0  0  0  0  0  0  0  0
  175.1266  243.4676  205.5883 H   0  0  0  0  0  0  0  0  0  0  0  0
  172.7394  249.3180  206.5981 C   0  0  0  0  0  0  0  0  0  0  0  0
  172.6651  248.8765  205.7039 O   0  0  0  0  0  0  0  0  0  0  0  0
  171.9879  249.2482  207.2542 N   0  0  0  0  0  0  0  0  0  0  0  0
  172.0611  249.6827  208.1345 H   0  0  0  0  0  0  0  0  0  0  0  0
  173.5652  249.8292  206.8363 C   0  0  0  0  0  0  0  0  0  0  0  0
  174.8936  249.1159  207.6887 C   0  0  0  0  0  0  0  0  0  0  0  0
  175.2703  248.7839  206.8239 O   0  0  0  0  0  0  0  0  0  0  0  0
  174.0411  249.6386  207.6949 N   0  0  0  0  0  0  0  0  0  0  0  0
  173.6702  249.9655  208.5463 H   0  0  0  0  0  0  0  0  0  0  0  0
  175.3695  248.9253  208.5473 C   0  0  0  0  0  0  0  0  0  0  0  0
  175.2596  247.4029  209.3658 C   0  0  0  0  0  0  0  0  0  0  0  0
  174.4271  247.7107  209.8265 O   0  0  0  0  0  0  0  0  0  0  0  0
  175.7307  248.0102  208.7263 N   0  0  0  0  0  0  0  0  0  0  0  0
  176.5503  247.7072  208.2727 H   0  0  0  0  0  0  0  0  0  0  0  0
  175.6208  246.4877  209.5448 C   0  0  0  0  0  0  0  0  0  0  0  0
  175.9165  245.9094  208.7845 C   0  0  0  0  0  0  0  0  0  0  0  0
  176.4797  245.6123  210.7678 C   0  0  0  0  0  0  0  0  0  0  0  0
  177.2074  245.4104  210.1123 O   0  0  0  0  0  0  0  0  0  0  0  0
  175.6864  246.1509  210.4841 N   0  0  0  0  0  0  0  0  0  0  0  0
  174.9700  246.3496  211.1294 H   0  0  0  0  0  0  0  0  0  0  0  0
  176.5453  245.2754  211.7071 C   0  0  0  0  0  0  0  0  0  0  0  0
  176.4095  246.3740  213.0392 C   0  0  0  0  0  0  0  0  0  0  0  0
  177.3701  246.6284  212.9274 O   0  0  0  0  0  0  0  0  0  0  0  0
  175.9971  245.6975  212.4291 N   0  0  0  0  0  0  0  0  0  0  0  0
  175.0514  245.4471  212.5392 H   0  0  0  0  0  0  0  0  0  0  0  0
  175.8613  246.7962  213.7612 C   0  0  0  0  0  0  0  0  0  0  0  0
  176.1034  246.2476  215.3862 C   0  0  0  0  0  0  0  0  0  0  0  0
  175.5636  245.4289  215.1902 O   0  0  0  0  0  0  0  0  0  0  0  0
  176.2522  246.9312  214.6716 N   0  0  0  0  0  0  0  0  0  0  0  0
  176.7836  247.7373  214.8645 H   0  0  0  0  0  0  0  0  0  0  0  0
  176.1221  247.0869  216.9012 N   0  0  0  0  0  0  0  0  0  0  0  0
  176.4944  246.3827  216.2966 C   0  0  0  0  0  0  0  0  0  0  0  0
  176.5208  247.2248  217.8298 H   0  0  0  0  0  0  0  0  0  0  0  0
  175.3435  247.6674  216.5891 H   0  0  0  0  0  0  0  0  0  0  0  0
  177.2576  245.8136  216.6025 C   0  0  0  0  0  0  0  0  0  0  0  0
  178.0943  245.7640  216.0571 O   0  0  0  0  0  0  0  0  0  0  0  0
  177.1841  245.2942  217.4538 C   0  0  0  0  0  0  0  0  0  0  0  0
  178.1656  246.2680  215.2313 H   0  0  0  0  0  0  0  0  0  0  0  0
  174.9221  247.0832  213.5728 C   0  0  0  0  0  0  0  0  0  0  0  0
  174.7191  248.0469  213.3995 C   0  0  0  0  0  0  0  0  0  0  0  0
  173.7707  248.3480  213.2988 C   0  0  0  0  0  0  0  0  0  0  0  0
  173.1622  248.3574  214.0923 O   0  0  0  0  0  0  0  0  0  0  0  0
  173.4310  248.6396  212.4047 N   0  0  0  0  0  0  0  0  0  0  0  0
  174.0301  248.6303  211.6235 H   0  0  0  0  0  0  0  0  0  0  0  0
  172.4974  248.9359  212.3056 H   0  0  0  0  0  0  0  0  0  0  0  0
  177.1591  244.5165  211.9244 C   0  0  0  0  0  0  0  0  0  0  0  0
  176.7825  243.6223  212.1662 C   0  0  0  0  0  0  0  0  0  0  0  0
  177.3901  242.8907  212.4753 C   0  0  0  0  0  0  0  0  0  0  0  0
  177.7070  242.1971  211.8284 O   0  0  0  0  0  0  0  0  0  0  0  0
  177.6810  242.8528  213.4314 N   0  0  0  0  0  0  0  0  0  0  0  0
  177.3691  243.5357  214.0682 H   0  0  0  0  0  0  0  0  0  0  0  0
  178.2793  242.1326  213.7357 H   0  0  0  0  0  0  0  0  0  0  0  0
  175.4840  249.6498  209.2270 C   0  0  0  0  0  0  0  0  0  0  0  0
  176.2668  250.2695  209.1701 O   0  0  0  0  0  0  0  0  0  0  0  0
  176.3779  250.9723  209.8294 H   0  0  0  0  0  0  0  0  0  0  0  0
  173.9152  250.5310  206.2158 C   0  0  0  0  0  0  0  0  0  0  0  0
  173.8368  251.4978  206.4592 C   0  0  0  0  0  0  0  0  0  0  0  0
  173.0394  252.0805  206.3024 C   0  0  0  0  0  0  0  0  0  0  0  0
  173.2518  252.9945  206.6484 N   0  0  0  0  0  0  0  0  0  0  0  0
  174.1805  252.9765  207.0190 C   0  0  0  0  0  0  0  0  0  0  0  0
  174.5419  252.0514  206.9020 N   0  0  0  0  0  0  0  0  0  0  0  0
  175.4353  251.7405  207.1750 H   0  0  0  0  0  0  0  0  0  0  0  0
 95 96  1  0  0  0
 95 97  1  0  0  0
 95 98  1  0  0  0
 96 91  1  0  0  0
 96 99  1  0  0  0
 91 92  2  0  0  0
 91 93  1  0  0  0
 93 90  1  0  0  0
 93 94  1  0  0  0
 90103  1  0  0  0
 90 86  1  0  0  0
103104  1  0  0  0
104105  1  0  0  0
105106  2  0  0  0
105107  1  0  0  0
107108  1  0  0  0
107109  1  0  0  0
 86 87  2  0  0  0
 86 88  1  0  0  0
 88 85  1  0  0  0
 88 89  1  0  0  0
 85110  1  0  0  0
 85 81  1  0  0  0
110111  1  0  0  0
111112  1  0  0  0
112113  2  0  0  0
112114  1  0  0  0
114115  1  0  0  0
114116  1  0  0  0
 81 82  2  0  0  0
 81 83  1  0  0  0
 83 79  1  0  0  0
 83 84  1  0  0  0
 79 80  1  0  0  0
 79 75  1  0  0  0
 75 76  2  0  0  0
 75 77  1  0  0  0
 77 74  1  0  0  0
 77 78  1  0  0  0
 74117  1  0  0  0
 74 70  1  0  0  0
117118  1  0  0  0
118119  1  0  0  0
 70 71  2  0  0  0
 70 72  1  0  0  0
 72 69  1  0  0  0
 72 73  1  0  0  0
 69120  1  0  0  0
 69 65  1  0  0  0
120121  1  0  0  0
121125  1  0  0  0
121122  2  0  0  0
122123  1  0  0  0
123124  2  0  0  0
124125  1  0  0  0
125126  1  0  0  0
 65 66  2  0  0  0
 65 67  1  0  0  0
 67  1  1  0  0  0
 67 68  1  0  0  0
  1  2  1  0  0  0
  1 10  1  0  0  0
  2  8  2  0  0  0
  2  3  1  0  0  0
  3  4  2  0  0  0
  4  5  1  0  0  0
  5  6  1  0  0  0
  5  7  2  0  0  0
  6  9  1  0  0  0
  7  8  1  0  0  0
 10 11  2  0  0  0
 10 12  1  0  0  0
 12 14  1  0  0  0
 12 13  1  0  0  0
 14 58  1  0  0  0
 14 15  1  0  0  0
 58 59  1  0  0  0
 59 60  1  0  0  0
 60 61  1  0  0  0
 61 62  1  0  0  0
 62 63  1  0  0  0
 62 64  1  0  0  0
 15 16  2  0  0  0
 15 17  1  0  0  0
 17 19  1  0  0  0
 17 18  1  0  0  0
 19 51  1  0  0  0
 19 20  1  0  0  0
 51 52  1  0  0  0
 52 53  1  0  0  0
 53 54  2  0  0  0
 53 55  1  0  0  0
 55 56  1  0  0  0
 55 57  1  0  0  0
 20 21  2  0  0  0
 20 22  1  0  0  0
 22 24  1  0  0  0
 22 23  1  0  0  0
 24 44  1  0  0  0
 24 25  1  0  0  0
 44 45  1  0  0  0
 45 49  1  0  0  0
 45 46  2  0  0  0
 46 47  1  0  0  0
 47 48  2  0  0  0
 48 49  1  0  0  0
 49 50  1  0  0  0
 25 26  2  0  0  0
 25 27  1  0  0  0
 27 29  1  0  0  0
 27 28  1  0  0  0
 29 41  1  0  0  0
 29 30  1  0  0  0
 41 42  1  0  0  0
 42 43  1  0  0  0
 30 31  2  0  0  0
 30 32  1  0  0  0
 32 36  1  0  0  0
 32 33  1  0  0  0
 33 34  1  0  0  0
 34 35  1  0  0  0
 35 36  1  0  0  0
 36 37  1  0  0  0
 37 38  1  0  0  0
 37 39  2  0  0  0
 38 40  1  0  0  0
 99100  1  0  0  0
 99101  1  0  0  0
100102  1  0  0  0
M  END
> <minimizedAffinity>
-8.30477

$$$$



126129  0  0  0  0  0  0  0  0999 V2000
  171.0916  243.7232  210.3927 C   0  0  0  0  0  0  0  0  0  0  0  0
  170.5077  243.0950  210.9068 C   0  0  0  0  0  0  0  0  0  0  0  0
  170.5483  243.0789  211.9058 C   0  0  0  0  0  0  0  0  0  0  0  0
  169.9643  242.4506  212.4199 C   0  0  0  0  0  0  0  0  0  0  0  0
  169.3399  241.8384  211.9350 C   0  0  0  0  0  0  0  0  0  0  0  0
  168.7560  241.2101  212.4491 O   0  0  0  0  0  0  0  0  0  0  0  0
  169.2993  241.8544  210.9360 C   0  0  0  0  0  0  0  0  0  0  0  0
  169.8831  242.4827  210.4219 C   0  0  0  0  0  0  0  0  0  0  0  0
  168.7940  241.1950  213.3852 H   0  0  0  0  0  0  0  0  0  0  0  0
  170.9816  244.7111  210.5024 C   0  0  0  0  0  0  0  0  0  0  0  0
  170.1410  245.1577  210.1959 O   0  0  0  0  0  0  0  0  0  0  0  0
  171.7121  245.2523  210.9187 N   0  0  0  0  0  0  0  0  0  0  0  0
  172.5397  244.8126  211.2205 H   0  0  0  0  0  0  0  0  0  0  0  0
  171.6021  246.2402  211.0285 C   0  0  0  0  0  0  0  0  0  0  0  0
  171.5859  246.6428  211.9437 C   0  0  0  0  0  0  0  0  0  0  0  0
  171.6826  247.6317  212.0567 O   0  0  0  0  0  0  0  0  0  0  0  0
  171.4729  246.0566  212.7460 N   0  0  0  0  0  0  0  0  0  0  0  0
  171.3777  245.0831  212.6347 H   0  0  0  0  0  0  0  0  0  0  0  0
  171.4567  246.4593  213.6611 C   0  0  0  0  0  0  0  0  0  0  0  0
  170.5908  246.7635  214.0582 C   0  0  0  0  0  0  0  0  0  0  0  0
  170.5030  247.6944  214.4128 O   0  0  0  0  0  0  0  0  0  0  0  0
  169.8126  246.1368  214.1007 N   0  0  0  0  0  0  0  0  0  0  0  0
  169.8990  245.2203  213.7516 H   0  0  0  0  0  0  0  0  0  0  0  0
  168.9467  246.4410  214.4978 C   0  0  0  0  0  0  0  0  0  0  0  0
  168.1905  246.7103  213.9015 C   0  0  0  0  0  0  0  0  0  0  0  0
  167.7535  247.6019  214.0199 O   0  0  0  0  0  0  0  0  0  0  0  0
  167.8713  246.0880  213.1867 N   0  0  0  0  0  0  0  0  0  0  0  0
  168.3016  245.2102  213.0702 H   0  0  0  0  0  0  0  0  0  0  0  0
  167.1151  246.3573  212.5904 C   0  0  0  0  0  0  0  0  0  0  0  0
  166.1918  246.0172  212.7692 C   0  0  0  0  0  0  0  0  0  0  0  0
  165.4629  246.6557  213.0163 O   0  0  0  0  0  0  0  0  0  0  0  0
  165.9975  245.0386  212.7010 N   0  0  0  0  0  0  0  0  0  0  0  0
  166.6550  244.3241  212.4620 C   0  0  0  0  0  0  0  0  0  0  0  0
  166.1753  243.4467  212.4731 C   0  0  0  0  0  0  0  0  0  0  0  0
  165.2215  243.6190  212.7189 C   0  0  0  0  0  0  0  0  0  0  0  0
  165.1116  244.6028  212.8598 C   0  0  0  0  0  0  0  0  0  0  0  0
  164.2645  245.0691  213.1147 C   0  0  0  0  0  0  0  0  0  0  0  0
  163.6437  245.4018  212.4047 O   0  0  0  0  0  0  0  0  0  0  0  0
  164.0380  245.2026  214.0795 O   0  0  0  0  0  0  0  0  0  0  0  0
  163.8559  245.2767  211.5007 H   0  0  0  0  0  0  0  0  0  0  0  0
  167.2820  246.9667  211.8153 C   0  0  0  0  0  0  0  0  0  0  0  0
  167.7969  246.6387  211.0232 S   0  0  0  0  0  0  0  0  0  0  0  0
  168.2700  245.3638  211.0002 H   0  0  0  0  0  0  0  0  0  0  0  0
  168.8371  246.4759  215.4911 C   0  0  0  0  0  0  0  0  0  0  0  0
  168.7481  245.6285  216.0144 C   0  0  0  0  0  0  0  0  0  0  0  0
  167.8964  245.1377  216.1983 C   0  0  0  0  0  0  0  0  0  0  0  0
  168.1172  244.3289  216.7433 N   0  0  0  0  0  0  0  0  0  0  0  0
  169.1054  244.3197  216.8963 C   0  0  0  0  0  0  0  0  0  0  0  0
  169.4953  245.1229  216.4458 N   0  0  0  0  0  0  0  0  0  0  0  0
  170.4476  245.3721  216.4299 H   0  0  0  0  0  0  0  0  0  0  0  0
  172.3063  246.5577  214.1793 C   0  0  0  0  0  0  0  0  0  0  0  0
  172.7542  245.7503  214.5632 C   0  0  0  0  0  0  0  0  0  0  0  0
  173.3676  245.8442  215.3474 C   0  0  0  0  0  0  0  0  0  0  0  0
  174.1048  246.5197  215.3274 O   0  0  0  0  0  0  0  0  0  0  0  0
  173.2440  245.2626  216.1514 N   0  0  0  0  0  0  0  0  0  0  0  0
  172.5182  244.5976  216.1709 H   0  0  0  0  0  0  0  0  0  0  0  0
  173.8479  245.3551  216.9234 H   0  0  0  0  0  0  0  0  0  0  0  0
  171.5084  246.8254  210.2231 C   0  0  0  0  0  0  0  0  0  0  0  0
  172.3004  247.0019  209.6384 C   0  0  0  0  0  0  0  0  0  0  0  0
  172.2252  247.6437  208.8752 C   0  0  0  0  0  0  0  0  0  0  0  0
  172.8123  247.5372  208.0727 C   0  0  0  0  0  0  0  0  0  0  0  0
  173.7260  247.9435  208.0642 N   0  0  0  0  0  0  0  0  0  0  0  0
  174.0592  248.4665  208.8740 H   0  0  0  0  0  0  0  0  0  0  0  0
  174.3248  247.8349  207.2456 H   0  0  0  0  0  0  0  0  0  0  0  0
  172.6650  243.0498  210.1265 C   0  0  0  0  0  0  0  0  0  0  0  0
  172.8507  243.0955  211.1081 O   0  0  0  0  0  0  0  0  0  0  0  0
  171.7855  243.3637  209.7688 N   0  0  0  0  0  0  0  0  0  0  0  0
  171.6027  243.3187  208.8025 H   0  0  0  0  0  0  0  0  0  0  0  0
  173.3589  242.6903  209.5026 C   0  0  0  0  0  0  0  0  0  0  0  0
  174.6370  243.7503  209.0097 C   0  0  0  0  0  0  0  0  0  0  0  0
  174.0178  244.1963  208.3634 O   0  0  0  0  0  0  0  0  0  0  0  0
  174.3075  242.9973  209.5793 N   0  0  0  0  0  0  0  0  0  0  0  0
  174.9170  242.5581  210.2156 H   0  0  0  0  0  0  0  0  0  0  0  0
  175.5856  244.0572  209.0864 C   0  0  0  0  0  0  0  0  0  0  0  0
  176.6853  243.7280  210.3834 C   0  0  0  0  0  0  0  0  0  0  0  0
  177.0277  242.9284  209.8900 O   0  0  0  0  0  0  0  0  0  0  0  0
  175.9642  244.2924  209.9816 N   0  0  0  0  0  0  0  0  0  0  0  0
  175.6270  245.0795  210.4673 H   0  0  0  0  0  0  0  0  0  0  0  0
  177.0639  243.9631  211.2786 C   0  0  0  0  0  0  0  0  0  0  0  0
  177.4966  243.2573  211.8395 C   0  0  0  0  0  0  0  0  0  0  0  0
  176.4547  245.1178  212.4167 C   0  0  0  0  0  0  0  0  0  0  0  0
  175.9537  244.3908  212.8862 O   0  0  0  0  0  0  0  0  0  0  0  0
  177.0098  244.9040  211.6129 N   0  0  0  0  0  0  0  0  0  0  0  0
  177.5030  245.6197  211.1506 H   0  0  0  0  0  0  0  0  0  0  0  0
  176.4006  246.0588  212.7511 C   0  0  0  0  0  0  0  0  0  0  0  0
  177.4660  246.6520  213.9811 C   0  0  0  0  0  0  0  0  0  0  0  0
  178.1598  246.8447  213.2872 O   0  0  0  0  0  0  0  0  0  0  0  0
  176.5864  246.2590  213.7130 N   0  0  0  0  0  0  0  0  0  0  0  0
  175.9034  246.0693  214.3961 H   0  0  0  0  0  0  0  0  0  0  0  0
  177.6518  246.8522  214.9431 C   0  0  0  0  0  0  0  0  0  0  0  0
  177.4889  245.5925  216.1205 C   0  0  0  0  0  0  0  0  0  0  0  0
  178.3881  245.2373  215.8650 O   0  0  0  0  0  0  0  0  0  0  0  0
  177.1208  246.3999  215.6596 N   0  0  0  0  0  0  0  0  0  0  0  0
  176.2355  246.7496  215.9111 H   0  0  0  0  0  0  0  0  0  0  0  0
  176.2618  244.4650  216.5928 N   0  0  0  0  0  0  0  0  0  0  0  0
  176.9578  245.1402  216.8371 C   0  0  0  0  0  0  0  0  0  0  0  0
  175.7201  244.0037  217.3235 H   0  0  0  0  0  0  0  0  0  0  0  0
  176.0935  244.2378  215.6127 H   0  0  0  0  0  0  0  0  0  0  0  0
  177.1228  245.3630  217.7979 C   0  0  0  0  0  0  0  0  0  0  0  0
  177.8157  244.8611  218.3157 O   0  0  0  0  0  0  0  0  0  0  0  0
  176.5949  246.0876  218.2408 C   0  0  0  0  0  0  0  0  0  0  0  0
  178.3278  244.1582  217.8859 H   0  0  0  0  0  0  0  0  0  0  0  0
  178.3687  247.5048  215.1885 C   0  0  0  0  0  0  0  0  0  0  0  0
  178.1237  248.4237  215.4978 C   0  0  0  0  0  0  0  0  0  0  0  0
  178.8106  249.0034  215.9362 C   0  0  0  0  0  0  0  0  0  0  0  0
  178.9633  248.9393  216.9224 O   0  0  0  0  0  0  0  0  0  0  0  0
  179.3449  249.6472  215.3883 N   0  0  0  0  0  0  0  0  0  0  0  0
  179.1946  249.7102  214.4174 H   0  0  0  0  0  0  0  0  0  0  0  0
  180.0211  250.2179  215.8199 H   0  0  0  0  0  0  0  0  0  0  0  0
  176.1606  246.7994  212.1235 C   0  0  0  0  0  0  0  0  0  0  0  0
  175.2165  247.1249  212.0718 C   0  0  0  0  0  0  0  0  0  0  0  0
  175.0135  248.0036  211.6399 C   0  0  0  0  0  0  0  0  0  0  0  0
  175.3396  248.1927  210.7137 O   0  0  0  0  0  0  0  0  0  0  0  0
  174.4843  248.6933  212.1343 N   0  0  0  0  0  0  0  0  0  0  0  0
  174.1632  248.5072  213.0461 H   0  0  0  0  0  0  0  0  0  0  0  0
  174.2844  249.5585  211.7090 H   0  0  0  0  0  0  0  0  0  0  0  0
  176.1555  244.1291  208.2679 C   0  0  0  0  0  0  0  0  0  0  0  0
  176.3894  245.0286  207.8989 O   0  0  0  0  0  0  0  0  0  0  0  0
  176.9424  245.0982  207.1049 H   0  0  0  0  0  0  0  0  0  0  0  0
  173.1041  242.0237  208.8020 C   0  0  0  0  0  0  0  0  0  0  0  0
  173.2696  241.0495  208.9550 C   0  0  0  0  0  0  0  0  0  0  0  0
  174.1564  240.5896  208.9090 C   0  0  0  0  0  0  0  0  0  0  0  0
  174.0124  239.6199  209.1064 N   0  0  0  0  0  0  0  0  0  0  0  0
  173.0364  239.4805  209.2744 C   0  0  0  0  0  0  0  0  0  0  0  0
  172.5775  240.3640  209.1808 N   0  0  0  0  0  0  0  0  0  0  0  0
  171.6134  240.5299  209.2915 H   0  0  0  0  0  0  0  0  0  0  0  0
 95 96  1  0  0  0
 95 97  1  0  0  0
 95 98  1  0  0  0
 96 91  1  0  0  0
 96 99  1  0  0  0
 91 92  2  0  0  0
 91 93  1  0  0  0
 93 90  1  0  0  0
 93 94  1  0  0  0
 90103  1  0  0  0
 90 86  1  0  0  0
103104  1  0  0  0
104105  1  0  0  0
105106  2  0  0  0
105107  1  0  0  0
107108  1  0  0  0
107109  1  0  0  0
 86 87  2  0  0  0
 86 88  1  0  0  0
 88 85  1  0  0  0
 88 89  1  0  0  0
 85110  1  0  0  0
 85 81  1  0  0  0
110111  1  0  0  0
111112  1  0  0  0
112113  2  0  0  0
112114  1  0  0  0
114115  1  0  0  0
114116  1  0  0  0
 81 82  2  0  0  0
 81 83  1  0  0  0
 83 79  1  0  0  0
 83 84  1  0  0  0
 79 80  1  0  0  0
 79 75  1  0  0  0
 75 76  2  0  0  0
 75 77  1  0  0  0
 77 74  1  0  0  0
 77 78  1  0  0  0
 74117  1  0  0  0
 74 70  1  0  0  0
117118  1  0  0  0
118119  1  0  0  0
 70 71  2  0  0  0
 70 72  1  0  0  0
 72 69  1  0  0  0
 72 73  1  0  0  0
 69120  1  0  0  0
 69 65  1  0  0  0
120121  1  0  0  0
121125  1  0  0  0
121122  2  0  0  0
122123  1  0  0  0
123124  2  0  0  0
124125  1  0  0  0
125126  1  0  0  0
 65 66  2  0  0  0
 65 67  1  0  0  0
 67  1  1  0  0  0
 67 68  1  0  0  0
  1  2  1  0  0  0
  1 10  1  0  0  0
  2  8  2  0  0  0
  2  3  1  0  0  0
  3  4  2  0  0  0
  4  5  1  0  0  0
  5  6  1  0  0  0
  5  7  2  0  0  0
  6  9  1  0  0  0
  7  8  1  0  0  0
 10 11  2  0  0  0
 10 12  1  0  0  0
 12 14  1  0  0  0
 12 13  1  0  0  0
 14 58  1  0  0  0
 14 15  1  0  0  0
 58 59  1  0  0  0
 59 60  1  0  0  0
 60 61  1  0  0  0
 61 62  1  0  0  0
 62 63  1  0  0  0
 62 64  1  0  0  0
 15 16  2  0  0  0
 15 17  1  0  0  0
 17 19  1  0  0  0
 17 18  1  0  0  0
 19 51  1  0  0  0
 19 20  1  0  0  0
 51 52  1  0  0  0
 52 53  1  0  0  0
 53 54  2  0  0  0
 53 55  1  0  0  0
 55 56  1  0  0  0
 55 57  1  0  0  0
 20 21  2  0  0  0
 20 22  1  0  0  0
 22 24  1  0  0  0
 22 23  1  0  0  0
 24 44  1  0  0  0
 24 25  1  0  0  0
 44 45  1  0  0  0
 45 49  1  0  0  0
 45 46  2  0  0  0
 46 47  1  0  0  0
 47 48  2  0  0  0
 48 49  1  0  0  0
 49 50  1  0  0  0
 25 26  2  0  0  0
 25 27  1  0  0  0
 27 29  1  0  0  0
 27 28  1  0  0  0
 29 41  1  0  0  0
 29 30  1  0  0  0
 41 42  1  0  0  0
 42 43  1  0  0  0
 30 31  2  0  0  0
 30 32  1  0  0  0
 32 36  1  0  0  0
 32 33  1  0  0  0
 33 34  1  0  0  0
 34 35  1  0  0  0
 35 36  1  0  0  0
 36 37  1  0  0  0
 37 38  1  0  0  0
 37 39  2  0  0  0
 38 40  1  0  0  0
 99100  1  0  0  0
 99101  1  0  0  0
100102  1  0  0  0
M  END
> <minimizedAffinity>
-8.27161

$$$$
