


126129  0  0  0  0  0  0  0  0999 V2000
   22.6635   68.6020   -2.9387 C   0  0  0  0  0  0  0  0  0  0  0  0
   23.4157   69.0605   -4.1665 C   0  0  0  0  0  0  0  0  0  0  0  0
   24.3335   70.1241   -4.0976 C   0  0  0  0  0  0  0  0  0  0  0  0
   25.0588   70.5061   -5.2287 C   0  0  0  0  0  0  0  0  0  0  0  0
   24.8637   69.8456   -6.4482 C   0  0  0  0  0  0  0  0  0  0  0  0
   25.5946   70.2325   -7.5709 O   0  0  0  0  0  0  0  0  0  0  0  0
   23.9403   68.7966   -6.5295 C   0  0  0  0  0  0  0  0  0  0  0  0
   23.2284   68.4016   -5.3920 C   0  0  0  0  0  0  0  0  0  0  0  0
   25.4385   69.7995   -8.4737 H   0  0  0  0  0  0  0  0  0  0  0  0
   23.0593   67.1975   -2.5646 C   0  0  0  0  0  0  0  0  0  0  0  0
   24.2679   66.9051   -2.3664 O   0  0  0  0  0  0  0  0  0  0  0  0
   22.0579   66.1747   -2.4754 N   0  0  0  0  0  0  0  0  0  0  0  0
   21.1611   66.4344   -2.0034 H   0  0  0  0  0  0  0  0  0  0  0  0
   22.0367   64.9574   -3.3031 C   0  0  0  0  0  0  0  0  0  0  0  0
   20.6160   64.4553   -3.4065 C   0  0  0  0  0  0  0  0  0  0  0  0
   19.7786   65.0476   -4.1458 O   0  0  0  0  0  0  0  0  0  0  0  0
   20.2167   63.3052   -2.6482 N   0  0  0  0  0  0  0  0  0  0  0  0
   20.9666   62.7154   -2.2201 H   0  0  0  0  0  0  0  0  0  0  0  0
   18.8485   63.1527   -2.1403 C   0  0  0  0  0  0  0  0  0  0  0  0
   17.9299   62.7324   -3.2623 C   0  0  0  0  0  0  0  0  0  0  0  0
   17.8107   61.5098   -3.5403 O   0  0  0  0  0  0  0  0  0  0  0  0
   17.1451   63.7126   -3.9663 N   0  0  0  0  0  0  0  0  0  0  0  0
   17.2234   64.7075   -3.6475 H   0  0  0  0  0  0  0  0  0  0  0  0
   16.0590   63.3279   -4.8831 C   0  0  0  0  0  0  0  0  0  0  0  0
   16.2013   63.9916   -6.2380 C   0  0  0  0  0  0  0  0  0  0  0  0
   16.0809   63.2957   -7.2829 O   0  0  0  0  0  0  0  0  0  0  0  0
   16.6109   65.3659   -6.3748 N   0  0  0  0  0  0  0  0  0  0  0  0
   17.2800   65.5691   -7.1549 H   0  0  0  0  0  0  0  0  0  0  0  0
   15.9464   66.5336   -5.7673 C   0  0  0  0  0  0  0  0  0  0  0  0
   16.9258   67.6539   -5.4983 C   0  0  0  0  0  0  0  0  0  0  0  0
   18.0622   67.6362   -6.0329 O   0  0  0  0  0  0  0  0  0  0  0  0
   16.6349   68.6796   -4.5391 N   0  0  0  0  0  0  0  0  0  0  0  0
   16.0416   69.9541   -4.9047 C   0  0  0  0  0  0  0  0  0  0  0  0
   16.3159   70.8853   -3.7330 C   0  0  0  0  0  0  0  0  0  0  0  0
   16.6523   69.9737   -2.5548 C   0  0  0  0  0  0  0  0  0  0  0  0
   17.1438   68.6640   -3.1737 C   0  0  0  0  0  0  0  0  0  0  0  0
   18.6457   68.5854   -3.1571 C   0  0  0  0  0  0  0  0  0  0  0  0
   19.3857   69.4049   -3.9973 O   0  0  0  0  0  0  0  0  0  0  0  0
   19.2299   67.7575   -2.4075 O   0  0  0  0  0  0  0  0  0  0  0  0
   20.3972   69.3569   -4.0122 H   0  0  0  0  0  0  0  0  0  0  0  0
   14.7323   66.9826   -6.6058 C   0  0  0  0  0  0  0  0  0  0  0  0
   13.2038   67.0610   -5.6119 S   0  0  0  0  0  0  0  0  0  0  0  0
   13.7010   67.9821   -4.6782 H   0  0  0  0  0  0  0  0  0  0  0  0
   14.6939   63.6638   -4.2445 C   0  0  0  0  0  0  0  0  0  0  0  0
   14.0134   62.4527   -3.6601 C   0  0  0  0  0  0  0  0  0  0  0  0
   12.6598   62.2796   -3.4816 C   0  0  0  0  0  0  0  0  0  0  0  0
   12.4396   61.0857   -2.8980 N   0  0  0  0  0  0  0  0  0  0  0  0
   13.6733   60.5650   -2.7249 C   0  0  0  0  0  0  0  0  0  0  0  0
   14.6507   61.3711   -3.1780 N   0  0  0  0  0  0  0  0  0  0  0  0
   15.6808   61.2096   -3.1208 H   0  0  0  0  0  0  0  0  0  0  0  0
   18.8163   62.0991   -1.0128 C   0  0  0  0  0  0  0  0  0  0  0  0
   19.9011   62.3437    0.0501 C   0  0  0  0  0  0  0  0  0  0  0  0
   19.4596   61.8530    1.4012 C   0  0  0  0  0  0  0  0  0  0  0  0
   19.0927   60.6562    1.5450 O   0  0  0  0  0  0  0  0  0  0  0  0
   19.4437   62.7378    2.5232 N   0  0  0  0  0  0  0  0  0  0  0  0
   19.1789   62.3846    3.4698 H   0  0  0  0  0  0  0  0  0  0  0  0
   19.6832   63.7479    2.4177 H   0  0  0  0  0  0  0  0  0  0  0  0
   23.0196   63.8637   -2.8130 C   0  0  0  0  0  0  0  0  0  0  0  0
   24.2901   63.7835   -3.6767 C   0  0  0  0  0  0  0  0  0  0  0  0
   24.1479   64.5138   -5.0244 C   0  0  0  0  0  0  0  0  0  0  0  0
   25.3757   65.3485   -5.4451 C   0  0  0  0  0  0  0  0  0  0  0  0
   26.2324   65.7012   -4.3103 N   0  0  0  0  0  0  0  0  0  0  0  0
   26.7198   64.8373   -3.9726 H   0  0  0  0  0  0  0  0  0  0  0  0
   25.6407   66.0598   -3.5329 H   0  0  0  0  0  0  0  0  0  0  0  0
   21.7806   70.1171   -1.1409 C   0  0  0  0  0  0  0  0  0  0  0  0
   20.8467   70.6495   -1.7981 O   0  0  0  0  0  0  0  0  0  0  0  0
   22.8896   69.5277   -1.8244 N   0  0  0  0  0  0  0  0  0  0  0  0
   23.8465   69.6253   -1.4117 H   0  0  0  0  0  0  0  0  0  0  0  0
   21.6350   69.9070    0.3379 C   0  0  0  0  0  0  0  0  0  0  0  0
   20.8590   72.1430    1.2825 C   0  0  0  0  0  0  0  0  0  0  0  0
   21.1327   73.3757    1.1987 O   0  0  0  0  0  0  0  0  0  0  0  0
   21.8948   71.1845    1.0069 N   0  0  0  0  0  0  0  0  0  0  0  0
   22.8706   71.5518    0.9891 H   0  0  0  0  0  0  0  0  0  0  0  0
   19.4936   71.7001    1.7641 C   0  0  0  0  0  0  0  0  0  0  0  0
   17.6787   72.8128    0.3903 C   0  0  0  0  0  0  0  0  0  0  0  0
   18.0990   72.2679   -0.6676 O   0  0  0  0  0  0  0  0  0  0  0  0
   18.4696   72.7403    1.5881 N   0  0  0  0  0  0  0  0  0  0  0  0
   18.2630   73.4220    2.3497 H   0  0  0  0  0  0  0  0  0  0  0  0
   16.3451   73.5213    0.4189 C   0  0  0  0  0  0  0  0  0  0  0  0
   15.2781   72.6220   -0.2040 C   0  0  0  0  0  0  0  0  0  0  0  0
   17.4199   75.7914   -0.0473 C   0  0  0  0  0  0  0  0  0  0  0  0
   18.2490   75.6273    0.8884 O   0  0  0  0  0  0  0  0  0  0  0  0
   16.3871   74.8180   -0.2793 N   0  0  0  0  0  0  0  0  0  0  0  0
   15.6789   75.0515   -1.0071 H   0  0  0  0  0  0  0  0  0  0  0  0
   17.5197   77.0183   -0.9200 C   0  0  0  0  0  0  0  0  0  0  0  0
   18.0127   75.4649   -2.8642 C   0  0  0  0  0  0  0  0  0  0  0  0
   17.2843   74.5105   -3.2551 O   0  0  0  0  0  0  0  0  0  0  0  0
   17.3856   76.6365   -2.3296 N   0  0  0  0  0  0  0  0  0  0  0  0
   16.5245   76.9500   -2.8214 H   0  0  0  0  0  0  0  0  0  0  0  0
   19.5073   75.3880   -3.1285 C   0  0  0  0  0  0  0  0  0  0  0  0
   20.1239   73.2687   -4.3307 C   0  0  0  0  0  0  0  0  0  0  0  0
   19.3213   72.4721   -3.7704 O   0  0  0  0  0  0  0  0  0  0  0  0
   19.8203   74.6672   -4.3645 N   0  0  0  0  0  0  0  0  0  0  0  0
   19.7855   75.1474   -5.2889 H   0  0  0  0  0  0  0  0  0  0  0  0
   21.2218   71.5616   -5.6946 N   0  0  0  0  0  0  0  0  0  0  0  0
   21.4416   72.7639   -4.8795 C   0  0  0  0  0  0  0  0  0  0  0  0
   22.1553   71.1624   -5.9506 H   0  0  0  0  0  0  0  0  0  0  0  0
   20.7576   70.8379   -5.1007 H   0  0  0  0  0  0  0  0  0  0  0  0
   22.1861   73.8579   -5.6768 C   0  0  0  0  0  0  0  0  0  0  0  0
   22.7817   74.7551   -4.7682 O   0  0  0  0  0  0  0  0  0  0  0  0
   23.2665   73.2812   -6.6026 C   0  0  0  0  0  0  0  0  0  0  0  0
   23.0249   75.5663   -5.2832 H   0  0  0  0  0  0  0  0  0  0  0  0
   20.2612   74.7813   -1.9324 C   0  0  0  0  0  0  0  0  0  0  0  0
   21.5037   75.5825   -1.5042 C   0  0  0  0  0  0  0  0  0  0  0  0
   22.7179   74.7053   -1.3309 C   0  0  0  0  0  0  0  0  0  0  0  0
   23.7729   75.1474   -0.8056 O   0  0  0  0  0  0  0  0  0  0  0  0
   22.6694   73.3441   -1.7543 N   0  0  0  0  0  0  0  0  0  0  0  0
   23.4953   72.7223   -1.6231 H   0  0  0  0  0  0  0  0  0  0  0  0
   21.7905   72.9412   -2.1553 H   0  0  0  0  0  0  0  0  0  0  0  0
   18.7883   77.8942   -0.6923 C   0  0  0  0  0  0  0  0  0  0  0  0
   19.1203   78.9688   -1.7487 C   0  0  0  0  0  0  0  0  0  0  0  0
   20.5528   79.0288   -2.2273 C   0  0  0  0  0  0  0  0  0  0  0  0
   21.4473   79.3213   -1.3945 O   0  0  0  0  0  0  0  0  0  0  0  0
   20.9306   78.8134   -3.5911 N   0  0  0  0  0  0  0  0  0  0  0  0
   20.2368   78.7469   -4.3640 H   0  0  0  0  0  0  0  0  0  0  0  0
   21.9432   78.8361   -3.8583 H   0  0  0  0  0  0  0  0  0  0  0  0
   19.5892   71.2767    3.2446 C   0  0  0  0  0  0  0  0  0  0  0  0
   20.8627   71.5624    3.7668 O   0  0  0  0  0  0  0  0  0  0  0  0
   20.8274   72.5007    4.0986 H   0  0  0  0  0  0  0  0  0  0  0  0
   22.5826   68.8109    0.8590 C   0  0  0  0  0  0  0  0  0  0  0  0
   21.9235   67.4628    0.7818 C   0  0  0  0  0  0  0  0  0  0  0  0
   22.5655   66.2390    0.8269 C   0  0  0  0  0  0  0  0  0  0  0  0
   21.6539   65.2578    0.6645 N   0  0  0  0  0  0  0  0  0  0  0  0
   20.4776   65.9124    0.5261 C   0  0  0  0  0  0  0  0  0  0  0  0
   20.6110   67.2527    0.6023 N   0  0  0  0  0  0  0  0  0  0  0  0
   19.8549   67.9639    0.5021 H   0  0  0  0  0  0  0  0  0  0  0  0
 95 96  1  0  0  0
 96 91  1  0  0  0
 91 92  2  0  0  0
 91 93  1  0  0  0
 93 90  1  0  0  0
 90103  1  0  0  0
103104  1  0  0  0
104105  1  0  0  0
105106  2  0  0  0
105107  1  0  0  0
 90 86  1  0  0  0
 86 87  2  0  0  0
 86 88  1  0  0  0
 88 85  1  0  0  0
 85110  1  0  0  0
110111  1  0  0  0
111112  1  0  0  0
112113  2  0  0  0
112114  1  0  0  0
 85 81  1  0  0  0
 81 82  2  0  0  0
 81 83  1  0  0  0
 83 79  1  0  0  0
 79 80  1  0  0  0
 79 75  1  0  0  0
 75 76  2  0  0  0
 75 77  1  0  0  0
 77 74  1  0  0  0
 74117  1  0  0  0
117118  1  0  0  0
 74 70  1  0  0  0
 70 71  2  0  0  0
 70 72  1  0  0  0
 72 69  1  0  0  0
 69120  1  0  0  0
120121  1  0  0  0
121122  2  0  0  0
122123  1  0  0  0
123124  2  0  0  0
124125  1  0  0  0
 69 65  1  0  0  0
 65 66  2  0  0  0
 65 67  1  0  0  0
 67  1  1  0  0  0
  1  2  1  0  0  0
  2  3  2  0  0  0
  3  4  1  0  0  0
  4  5  2  0  0  0
  5  6  1  0  0  0
  5  7  1  0  0  0
  7  8  2  0  0  0
  1 10  1  0  0  0
 10 11  2  0  0  0
 10 12  1  0  0  0
 12 14  1  0  0  0
 14 58  1  0  0  0
 58 59  1  0  0  0
 59 60  1  0  0  0
 60 61  1  0  0  0
 61 62  1  0  0  0
 14 15  1  0  0  0
 15 16  2  0  0  0
 15 17  1  0  0  0
 17 19  1  0  0  0
 19 51  1  0  0  0
 51 52  1  0  0  0
 52 53  1  0  0  0
 53 54  2  0  0  0
 53 55  1  0  0  0
 19 20  1  0  0  0
 20 21  2  0  0  0
 20 22  1  0  0  0
 22 24  1  0  0  0
 24 44  1  0  0  0
 44 45  1  0  0  0
 45 46  2  0  0  0
 46 47  1  0  0  0
 47 48  2  0  0  0
 48 49  1  0  0  0
 24 25  1  0  0  0
 25 26  2  0  0  0
 25 27  1  0  0  0
 27 29  1  0  0  0
 29 41  1  0  0  0
 41 42  1  0  0  0
 29 30  1  0  0  0
 30 31  2  0  0  0
 30 32  1  0  0  0
 32 33  1  0  0  0
 33 34  1  0  0  0
 34 35  1  0  0  0
 35 36  1  0  0  0
 36 37  1  0  0  0
 37 38  1  0  0  0
 37 39  2  0  0  0
 96 99  1  0  0  0
 99100  1  0  0  0
 99101  1  0  0  0
125121  1  0  0  0
  8  2  1  0  0  0
 49 45  1  0  0  0
 36 32  1  0  0  0
 95 97  1  0  0  0
 95 98  1  0  0  0
 93 94  1  0  0  0
107108  1  0  0  0
107109  1  0  0  0
 88 89  1  0  0  0
114115  1  0  0  0
114116  1  0  0  0
 83 84  1  0  0  0
 77 78  1  0  0  0
118119  1  0  0  0
 72 73  1  0  0  0
125126  1  0  0  0
 67 68  1  0  0  0
  6  9  1  0  0  0
 12 13  1  0  0  0
 62 63  1  0  0  0
 62 64  1  0  0  0
 17 18  1  0  0  0
 55 56  1  0  0  0
 55 57  1  0  0  0
 22 23  1  0  0  0
 49 50  1  0  0  0
 27 28  1  0  0  0
 42 43  1  0  0  0
 38 40  1  0  0  0
100102  1  0  0  0
M  END
> <minimizedAffinity>
-5.97266

$$$$



126129  0  0  0  0  0  0  0  0999 V2000
   20.6987   76.1230   -1.3981 C   0  0  0  0  0  0  0  0  0  0  0  0
   21.4546   77.2111   -2.1250 C   0  0  0  0  0  0  0  0  0  0  0  0
   22.5803   76.9082   -2.9121 C   0  0  0  0  0  0  0  0  0  0  0  0
   23.2406   77.9163   -3.6185 C   0  0  0  0  0  0  0  0  0  0  0  0
   22.7993   79.2428   -3.5333 C   0  0  0  0  0  0  0  0  0  0  0  0
   23.4634   80.2415   -4.2444 O   0  0  0  0  0  0  0  0  0  0  0  0
   21.6895   79.5554   -2.7391 C   0  0  0  0  0  0  0  0  0  0  0  0
   21.0168   78.5428   -2.0474 C   0  0  0  0  0  0  0  0  0  0  0  0
   23.1901   81.2139   -4.1633 H   0  0  0  0  0  0  0  0  0  0  0  0
   19.2272   76.1951   -1.7121 C   0  0  0  0  0  0  0  0  0  0  0  0
   18.3851   76.3712   -0.7927 O   0  0  0  0  0  0  0  0  0  0  0  0
   18.7772   76.0188   -3.0623 N   0  0  0  0  0  0  0  0  0  0  0  0
   19.3292   76.5010   -3.8088 H   0  0  0  0  0  0  0  0  0  0  0  0
   17.8730   74.9441   -3.5037 C   0  0  0  0  0  0  0  0  0  0  0  0
   18.6820   73.6970   -3.7712 C   0  0  0  0  0  0  0  0  0  0  0  0
   19.0309   72.9422   -2.8188 O   0  0  0  0  0  0  0  0  0  0  0  0
   19.0650   73.3789   -5.1164 N   0  0  0  0  0  0  0  0  0  0  0  0
   18.5913   73.8911   -5.8954 H   0  0  0  0  0  0  0  0  0  0  0  0
   20.3192   72.6789   -5.4167 C   0  0  0  0  0  0  0  0  0  0  0  0
   20.0366   71.2248   -5.7085 C   0  0  0  0  0  0  0  0  0  0  0  0
   20.2532   70.7713   -6.8634 O   0  0  0  0  0  0  0  0  0  0  0  0
   19.5867   70.3463   -4.6607 N   0  0  0  0  0  0  0  0  0  0  0  0
   19.4939   70.7546   -3.7003 H   0  0  0  0  0  0  0  0  0  0  0  0
   19.5441   68.8847   -4.8348 C   0  0  0  0  0  0  0  0  0  0  0  0
   18.3094   68.2759   -4.2014 C   0  0  0  0  0  0  0  0  0  0  0  0
   18.3671   67.8564   -3.0133 O   0  0  0  0  0  0  0  0  0  0  0  0
   17.1077   68.0287   -4.9565 N   0  0  0  0  0  0  0  0  0  0  0  0
   16.6151   67.1271   -4.7515 H   0  0  0  0  0  0  0  0  0  0  0  0
   16.3389   69.0317   -5.7160 C   0  0  0  0  0  0  0  0  0  0  0  0
   16.0498   70.2597   -4.8822 C   0  0  0  0  0  0  0  0  0  0  0  0
   16.7657   71.2844   -5.0046 O   0  0  0  0  0  0  0  0  0  0  0  0
   15.0500   70.2403   -3.8543 N   0  0  0  0  0  0  0  0  0  0  0  0
   13.6833   70.6791   -4.0768 C   0  0  0  0  0  0  0  0  0  0  0  0
   13.1017   70.9275   -2.6928 C   0  0  0  0  0  0  0  0  0  0  0  0
   14.0150   70.1794   -1.7240 C   0  0  0  0  0  0  0  0  0  0  0  0
   15.3584   70.0456   -2.4434 C   0  0  0  0  0  0  0  0  0  0  0  0
   16.3400   71.0763   -1.9571 C   0  0  0  0  0  0  0  0  0  0  0  0
   17.6899   70.7622   -1.8917 O   0  0  0  0  0  0  0  0  0  0  0  0
   15.9365   72.2094   -1.5804 O   0  0  0  0  0  0  0  0  0  0  0  0
   18.3651   71.4368   -1.5531 H   0  0  0  0  0  0  0  0  0  0  0  0
   17.0254   69.3616   -7.0571 C   0  0  0  0  0  0  0  0  0  0  0  0
   15.8295   69.9049   -8.3241 S   0  0  0  0  0  0  0  0  0  0  0  0
   15.3371   70.9898   -7.5838 H   0  0  0  0  0  0  0  0  0  0  0  0
   20.8293   68.2530   -4.2576 C   0  0  0  0  0  0  0  0  0  0  0  0
   21.9372   68.1600   -5.2752 C   0  0  0  0  0  0  0  0  0  0  0  0
   21.9711   67.3358   -6.3767 C   0  0  0  0  0  0  0  0  0  0  0  0
   23.1392   67.5107   -7.0244 N   0  0  0  0  0  0  0  0  0  0  0  0
   23.7947   68.4342   -6.2891 C   0  0  0  0  0  0  0  0  0  0  0  0
   23.0908   68.8489   -5.2201 N   0  0  0  0  0  0  0  0  0  0  0  0
   23.3977   69.5226   -4.4836 H   0  0  0  0  0  0  0  0  0  0  0  0
   21.0134   73.3328   -6.6303 C   0  0  0  0  0  0  0  0  0  0  0  0
   22.1336   74.3012   -6.2141 C   0  0  0  0  0  0  0  0  0  0  0  0
   21.6614   75.7284   -6.2527 C   0  0  0  0  0  0  0  0  0  0  0  0
   20.6043   76.0559   -5.6503 O   0  0  0  0  0  0  0  0  0  0  0  0
   22.3984   76.7157   -6.9765 N   0  0  0  0  0  0  0  0  0  0  0  0
   22.0935   77.7146   -6.9661 H   0  0  0  0  0  0  0  0  0  0  0  0
   23.2420   76.4585   -7.5343 H   0  0  0  0  0  0  0  0  0  0  0  0
   16.9832   75.3452   -4.7078 C   0  0  0  0  0  0  0  0  0  0  0  0
   17.2564   76.7802   -5.1901 C   0  0  0  0  0  0  0  0  0  0  0  0
   16.0501   77.7177   -5.0012 C   0  0  0  0  0  0  0  0  0  0  0  0
   15.2748   78.0491   -6.2936 C   0  0  0  0  0  0  0  0  0  0  0  0
   14.0137   77.3110   -6.3988 N   0  0  0  0  0  0  0  0  0  0  0  0
   13.3395   77.6904   -5.6921 H   0  0  0  0  0  0  0  0  0  0  0  0
   14.1835   76.3092   -6.1739 H   0  0  0  0  0  0  0  0  0  0  0  0
   22.0099   74.0737   -0.7749 C   0  0  0  0  0  0  0  0  0  0  0  0
   22.9431   74.6421   -0.1476 O   0  0  0  0  0  0  0  0  0  0  0  0
   21.2460   74.8056   -1.7368 N   0  0  0  0  0  0  0  0  0  0  0  0
   20.9367   74.3200   -2.6109 H   0  0  0  0  0  0  0  0  0  0  0  0
   21.5560   72.7023   -0.3680 C   0  0  0  0  0  0  0  0  0  0  0  0
   22.2111   70.5128   -1.4952 C   0  0  0  0  0  0  0  0  0  0  0  0
   22.8642   70.0981   -2.4967 O   0  0  0  0  0  0  0  0  0  0  0  0
   21.6353   71.8295   -1.5422 N   0  0  0  0  0  0  0  0  0  0  0  0
   21.5805   72.2759   -2.4831 H   0  0  0  0  0  0  0  0  0  0  0  0
   21.9611   69.5929   -0.3189 C   0  0  0  0  0  0  0  0  0  0  0  0
   23.4154   67.9931    1.0020 C   0  0  0  0  0  0  0  0  0  0  0  0
   23.3563   68.7308    2.0243 O   0  0  0  0  0  0  0  0  0  0  0  0
   22.9244   68.4840   -0.2563 N   0  0  0  0  0  0  0  0  0  0  0  0
   23.2382   67.9983   -1.1241 H   0  0  0  0  0  0  0  0  0  0  0  0
   23.9757   66.5933    1.0890 C   0  0  0  0  0  0  0  0  0  0  0  0
   25.4897   66.6380    0.8856 C   0  0  0  0  0  0  0  0  0  0  0  0
   21.9429   65.4327    0.0661 C   0  0  0  0  0  0  0  0  0  0  0  0
   21.1923   65.8717    0.9791 O   0  0  0  0  0  0  0  0  0  0  0  0
   23.3584   65.6832    0.1086 N   0  0  0  0  0  0  0  0  0  0  0  0
   23.9378   65.2204   -0.6235 H   0  0  0  0  0  0  0  0  0  0  0  0
   21.3436   64.6411   -1.0702 C   0  0  0  0  0  0  0  0  0  0  0  0
   21.2572   64.8700   -3.5953 C   0  0  0  0  0  0  0  0  0  0  0  0
   20.2192   65.0618   -4.2882 O   0  0  0  0  0  0  0  0  0  0  0  0
   21.3324   65.4551   -2.2900 N   0  0  0  0  0  0  0  0  0  0  0  0
   20.9544   66.4205   -2.2073 H   0  0  0  0  0  0  0  0  0  0  0  0
   22.4373   64.1641   -4.2422 C   0  0  0  0  0  0  0  0  0  0  0  0
   22.0215   62.2117   -5.7695 C   0  0  0  0  0  0  0  0  0  0  0  0
   22.8985   62.4447   -6.6464 O   0  0  0  0  0  0  0  0  0  0  0  0
   22.1900   62.7352   -4.4478 N   0  0  0  0  0  0  0  0  0  0  0  0
   22.1754   62.0723   -3.6436 H   0  0  0  0  0  0  0  0  0  0  0  0
   20.2099   60.7870   -4.9521 N   0  0  0  0  0  0  0  0  0  0  0  0
   20.7559   61.4654   -6.1353 C   0  0  0  0  0  0  0  0  0  0  0  0
   19.4159   60.1776   -5.2593 H   0  0  0  0  0  0  0  0  0  0  0  0
   20.9370   60.1371   -4.5767 H   0  0  0  0  0  0  0  0  0  0  0  0
   19.7092   62.3979   -6.7845 C   0  0  0  0  0  0  0  0  0  0  0  0
   20.2480   63.6971   -6.8665 O   0  0  0  0  0  0  0  0  0  0  0  0
   19.2929   61.9316   -8.1868 C   0  0  0  0  0  0  0  0  0  0  0  0
   19.4903   64.3120   -7.0397 H   0  0  0  0  0  0  0  0  0  0  0  0
   23.7346   64.3884   -3.4460 C   0  0  0  0  0  0  0  0  0  0  0  0
   24.6597   65.4620   -4.0465 C   0  0  0  0  0  0  0  0  0  0  0  0
   24.9002   66.6067   -3.0948 C   0  0  0  0  0  0  0  0  0  0  0  0
   23.9435   67.1956   -2.5272 O   0  0  0  0  0  0  0  0  0  0  0  0
   26.2360   67.0231   -2.8176 N   0  0  0  0  0  0  0  0  0  0  0  0
   26.4165   67.8005   -2.1475 H   0  0  0  0  0  0  0  0  0  0  0  0
   27.0502   66.5225   -3.2441 H   0  0  0  0  0  0  0  0  0  0  0  0
   19.9374   64.0324   -0.7868 C   0  0  0  0  0  0  0  0  0  0  0  0
   19.8651   62.5452   -0.3816 C   0  0  0  0  0  0  0  0  0  0  0  0
   19.4925   62.2511    1.0535 C   0  0  0  0  0  0  0  0  0  0  0  0
   18.8304   63.1122    1.6854 O   0  0  0  0  0  0  0  0  0  0  0  0
   19.8975   61.0606    1.7375 N   0  0  0  0  0  0  0  0  0  0  0  0
   20.5916   60.3929    1.3433 H   0  0  0  0  0  0  0  0  0  0  0  0
   19.5820   60.8961    2.7228 H   0  0  0  0  0  0  0  0  0  0  0  0
   20.5170   69.0547   -0.3921 C   0  0  0  0  0  0  0  0  0  0  0  0
   20.0931   68.5834    0.8626 O   0  0  0  0  0  0  0  0  0  0  0  0
   19.7137   69.3676    1.3449 H   0  0  0  0  0  0  0  0  0  0  0  0
   20.1292   72.7170    0.2107 C   0  0  0  0  0  0  0  0  0  0  0  0
   20.0832   71.9825    1.5207 C   0  0  0  0  0  0  0  0  0  0  0  0
   18.9720   71.3733    2.0738 C   0  0  0  0  0  0  0  0  0  0  0  0
   19.3004   70.8739    3.2833 N   0  0  0  0  0  0  0  0  0  0  0  0
   20.6073   71.1918    3.4339 C   0  0  0  0  0  0  0  0  0  0  0  0
   21.1105   71.8578    2.3740 N   0  0  0  0  0  0  0  0  0  0  0  0
   22.0804   72.2261    2.2690 H   0  0  0  0  0  0  0  0  0  0  0  0
 95 96  1  0  0  0
 96 91  1  0  0  0
 91 92  2  0  0  0
 91 93  1  0  0  0
 93 90  1  0  0  0
 90103  1  0  0  0
103104  1  0  0  0
104105  1  0  0  0
105106  2  0  0  0
105107  1  0  0  0
 90 86  1  0  0  0
 86 87  2  0  0  0
 86 88  1  0  0  0
 88 85  1  0  0  0
 85110  1  0  0  0
110111  1  0  0  0
111112  1  0  0  0
112113  2  0  0  0
112114  1  0  0  0
 85 81  1  0  0  0
 81 82  2  0  0  0
 81 83  1  0  0  0
 83 79  1  0  0  0
 79 80  1  0  0  0
 79 75  1  0  0  0
 75 76  2  0  0  0
 75 77  1  0  0  0
 77 74  1  0  0  0
 74117  1  0  0  0
117118  1  0  0  0
 74 70  1  0  0  0
 70 71  2  0  0  0
 70 72  1  0  0  0
 72 69  1  0  0  0
 69120  1  0  0  0
120121  1  0  0  0
121122  2  0  0  0
122123  1  0  0  0
123124  2  0  0  0
124125  1  0  0  0
 69 65  1  0  0  0
 65 66  2  0  0  0
 65 67  1  0  0  0
 67  1  1  0  0  0
  1  2  1  0  0  0
  2  3  2  0  0  0
  3  4  1  0  0  0
  4  5  2  0  0  0
  5  6  1  0  0  0
  5  7  1  0  0  0
  7  8  2  0  0  0
  1 10  1  0  0  0
 10 11  2  0  0  0
 10 12  1  0  0  0
 12 14  1  0  0  0
 14 58  1  0  0  0
 58 59  1  0  0  0
 59 60  1  0  0  0
 60 61  1  0  0  0
 61 62  1  0  0  0
 14 15  1  0  0  0
 15 16  2  0  0  0
 15 17  1  0  0  0
 17 19  1  0  0  0
 19 51  1  0  0  0
 51 52  1  0  0  0
 52 53  1  0  0  0
 53 54  2  0  0  0
 53 55  1  0  0  0
 19 20  1  0  0  0
 20 21  2  0  0  0
 20 22  1  0  0  0
 22 24  1  0  0  0
 24 44  1  0  0  0
 44 45  1  0  0  0
 45 46  2  0  0  0
 46 47  1  0  0  0
 47 48  2  0  0  0
 48 49  1  0  0  0
 24 25  1  0  0  0
 25 26  2  0  0  0
 25 27  1  0  0  0
 27 29  1  0  0  0
 29 41  1  0  0  0
 41 42  1  0  0  0
 29 30  1  0  0  0
 30 31  2  0  0  0
 30 32  1  0  0  0
 32 33  1  0  0  0
 33 34  1  0  0  0
 34 35  1  0  0  0
 35 36  1  0  0  0
 36 37  1  0  0  0
 37 38  1  0  0  0
 37 39  2  0  0  0
 96 99  1  0  0  0
 99100  1  0  0  0
 99101  1  0  0  0
125121  1  0  0  0
  8  2  1  0  0  0
 49 45  1  0  0  0
 36 32  1  0  0  0
 95 97  1  0  0  0
 95 98  1  0  0  0
 93 94  1  0  0  0
107108  1  0  0  0
107109  1  0  0  0
 88 89  1  0  0  0
114115  1  0  0  0
114116  1  0  0  0
 83 84  1  0  0  0
 77 78  1  0  0  0
118119  1  0  0  0
 72 73  1  0  0  0
125126  1  0  0  0
 67 68  1  0  0  0
  6  9  1  0  0  0
 12 13  1  0  0  0
 62 63  1  0  0  0
 62 64  1  0  0  0
 17 18  1  0  0  0
 55 56  1  0  0  0
 55 57  1  0  0  0
 22 23  1  0  0  0
 49 50  1  0  0  0
 27 28  1  0  0  0
 42 43  1  0  0  0
 38 40  1  0  0  0
100102  1  0  0  0
M  END
> <minimizedAffinity>
-5.71645

$$$$



126129  0  0  0  0  0  0  0  0999 V2000
   45.3900   63.7681   10.1910 C   0  0  0  0  0  0  0  0  0  0  0  0
   44.8821   64.8813   11.0777 C   0  0  0  0  0  0  0  0  0  0  0  0
   44.7551   66.1944   10.5897 C   0  0  0  0  0  0  0  0  0  0  0  0
   44.2379   67.2043   11.4045 C   0  0  0  0  0  0  0  0  0  0  0  0
   43.8593   66.9224   12.7232 C   0  0  0  0  0  0  0  0  0  0  0  0
   43.3414   67.9367   13.5277 O   0  0  0  0  0  0  0  0  0  0  0  0
   43.9977   65.6216   13.2221 C   0  0  0  0  0  0  0  0  0  0  0  0
   44.4974   64.6065   12.3997 C   0  0  0  0  0  0  0  0  0  0  0  0
   43.1026   67.7669   14.4978 H   0  0  0  0  0  0  0  0  0  0  0  0
   46.8314   63.4568   10.4990 C   0  0  0  0  0  0  0  0  0  0  0  0
   47.1337   62.7489   11.4954 O   0  0  0  0  0  0  0  0  0  0  0  0
   47.8704   64.0059    9.6771 N   0  0  0  0  0  0  0  0  0  0  0  0
   47.7109   63.9889    8.6433 H   0  0  0  0  0  0  0  0  0  0  0  0
   48.9266   64.9082   10.1645 C   0  0  0  0  0  0  0  0  0  0  0  0
   48.8587   66.2077    9.3977 C   0  0  0  0  0  0  0  0  0  0  0  0
   49.9183   66.8048    9.0523 O   0  0  0  0  0  0  0  0  0  0  0  0
   47.5796   66.7698    9.0730 N   0  0  0  0  0  0  0  0  0  0  0  0
   46.7356   66.1614    9.1778 H   0  0  0  0  0  0  0  0  0  0  0  0
   47.3746   68.2200    8.9824 C   0  0  0  0  0  0  0  0  0  0  0  0
   47.7873   68.8772   10.2775 C   0  0  0  0  0  0  0  0  0  0  0  0
   47.6273   68.2601   11.3637 O   0  0  0  0  0  0  0  0  0  0  0  0
   48.4197   70.1703   10.2682 N   0  0  0  0  0  0  0  0  0  0  0  0
   48.5987   70.6091    9.3338 H   0  0  0  0  0  0  0  0  0  0  0  0
   49.0629   70.7310   11.4682 C   0  0  0  0  0  0  0  0  0  0  0  0
   48.7211   72.1948   11.6610 C   0  0  0  0  0  0  0  0  0  0  0  0
   49.4109   73.0730   11.0748 O   0  0  0  0  0  0  0  0  0  0  0  0
   47.7223   72.6269   12.6048 N   0  0  0  0  0  0  0  0  0  0  0  0
   47.9539   73.4878   13.1551 H   0  0  0  0  0  0  0  0  0  0  0  0
   46.3124   72.1964   12.6336 C   0  0  0  0  0  0  0  0  0  0  0  0
   46.1389   70.9097   13.4087 C   0  0  0  0  0  0  0  0  0  0  0  0
   45.3366   70.0340   13.0003 O   0  0  0  0  0  0  0  0  0  0  0  0
   46.7775   70.7162   14.6782 N   0  0  0  0  0  0  0  0  0  0  0  0
   48.0592   70.0479   14.8211 C   0  0  0  0  0  0  0  0  0  0  0  0
   48.1552   69.6540   16.2877 C   0  0  0  0  0  0  0  0  0  0  0  0
   47.1281   70.5209   17.0131 C   0  0  0  0  0  0  0  0  0  0  0  0
   46.0992   70.9162   15.9524 C   0  0  0  0  0  0  0  0  0  0  0  0
   44.8649   70.0619   16.0480 C   0  0  0  0  0  0  0  0  0  0  0  0
   44.9337   68.7162   15.7173 O   0  0  0  0  0  0  0  0  0  0  0  0
   43.7657   70.5711   16.3958 O   0  0  0  0  0  0  0  0  0  0  0  0
   44.1111   68.1272   15.7606 H   0  0  0  0  0  0  0  0  0  0  0  0
   45.3937   73.3300   13.1335 C   0  0  0  0  0  0  0  0  0  0  0  0
   46.2540   74.4506   14.2887 S   0  0  0  0  0  0  0  0  0  0  0  0
   47.2694   74.8113   13.3908 H   0  0  0  0  0  0  0  0  0  0  0  0
   50.5912   70.5274   11.3842 C   0  0  0  0  0  0  0  0  0  0  0  0
   51.0517   69.2884   12.1083 C   0  0  0  0  0  0  0  0  0  0  0  0
   51.8340   69.2436   13.2396 C   0  0  0  0  0  0  0  0  0  0  0  0
   52.0646   67.9576   13.5674 N   0  0  0  0  0  0  0  0  0  0  0  0
   51.4223   67.2488   12.6143 C   0  0  0  0  0  0  0  0  0  0  0  0
   50.7969   68.0284   11.7136 N   0  0  0  0  0  0  0  0  0  0  0  0
   50.2709   67.7187   10.8663 H   0  0  0  0  0  0  0  0  0  0  0  0
   48.1992   68.7995    7.8134 C   0  0  0  0  0  0  0  0  0  0  0  0
   47.4068   68.8309    6.4953 C   0  0  0  0  0  0  0  0  0  0  0  0
   48.2294   68.3015    5.3532 C   0  0  0  0  0  0  0  0  0  0  0  0
   47.6938   67.5642    4.4831 O   0  0  0  0  0  0  0  0  0  0  0  0
   49.6186   68.6210    5.2522 N   0  0  0  0  0  0  0  0  0  0  0  0
   50.1782   68.2891    4.4352 H   0  0  0  0  0  0  0  0  0  0  0  0
   50.0997   69.1778    5.9921 H   0  0  0  0  0  0  0  0  0  0  0  0
   50.3402   64.2730   10.1338 C   0  0  0  0  0  0  0  0  0  0  0  0
   50.3544   62.9006    9.4390 C   0  0  0  0  0  0  0  0  0  0  0  0
   50.6819   61.7436   10.4002 C   0  0  0  0  0  0  0  0  0  0  0  0
   50.0555   60.3853   10.0209 C   0  0  0  0  0  0  0  0  0  0  0  0
   48.5928   60.4373    9.9594 N   0  0  0  0  0  0  0  0  0  0  0  0
   48.3088   60.9974    9.1206 H   0  0  0  0  0  0  0  0  0  0  0  0
   48.2314   60.9228   10.8061 H   0  0  0  0  0  0  0  0  0  0  0  0
   44.6798   61.4869    9.4170 C   0  0  0  0  0  0  0  0  0  0  0  0
   44.6883   61.7081    8.1766 O   0  0  0  0  0  0  0  0  0  0  0  0
   44.5505   62.5748   10.3358 N   0  0  0  0  0  0  0  0  0  0  0  0
   43.9834   62.4368   11.2047 H   0  0  0  0  0  0  0  0  0  0  0  0
   45.0188   60.1217    9.9400 C   0  0  0  0  0  0  0  0  0  0  0  0
   45.1286   58.8391    7.7408 C   0  0  0  0  0  0  0  0  0  0  0  0
   44.4021   58.5718    6.7396 O   0  0  0  0  0  0  0  0  0  0  0  0
   44.4939   59.1300    8.9977 N   0  0  0  0  0  0  0  0  0  0  0  0
   43.4869   58.8708    9.0771 H   0  0  0  0  0  0  0  0  0  0  0  0
   46.6360   58.7502    7.6295 C   0  0  0  0  0  0  0  0  0  0  0  0
   48.2319   59.8023    5.9667 C   0  0  0  0  0  0  0  0  0  0  0  0
   48.5679   60.6891    6.7996 O   0  0  0  0  0  0  0  0  0  0  0  0
   47.1118   58.9486    6.2526 N   0  0  0  0  0  0  0  0  0  0  0  0
   46.6742   58.4367    5.4564 H   0  0  0  0  0  0  0  0  0  0  0  0
   49.0054   59.6130    4.6833 C   0  0  0  0  0  0  0  0  0  0  0  0
   49.4408   60.9759    4.1463 C   0  0  0  0  0  0  0  0  0  0  0  0
   48.8370   58.0443    2.6742 C   0  0  0  0  0  0  0  0  0  0  0  0
   50.0915   58.0149    2.5510 O   0  0  0  0  0  0  0  0  0  0  0  0
   48.2256   58.8908    3.6631 N   0  0  0  0  0  0  0  0  0  0  0  0
   47.1848   58.9405    3.6577 H   0  0  0  0  0  0  0  0  0  0  0  0
   47.9830   57.1853    1.7743 C   0  0  0  0  0  0  0  0  0  0  0  0
   46.9862   55.9425    3.7486 C   0  0  0  0  0  0  0  0  0  0  0  0
   46.5730   56.4636    4.8220 O   0  0  0  0  0  0  0  0  0  0  0  0
   46.8329   56.6711    2.5249 N   0  0  0  0  0  0  0  0  0  0  0  0
   45.9337   57.1822    2.4154 H   0  0  0  0  0  0  0  0  0  0  0  0
   47.4782   54.5051    3.7861 C   0  0  0  0  0  0  0  0  0  0  0  0
   45.3906   53.3914    2.9385 C   0  0  0  0  0  0  0  0  0  0  0  0
   45.7474   53.1603    1.7503 O   0  0  0  0  0  0  0  0  0  0  0  0
   46.3859   53.5444    3.9560 N   0  0  0  0  0  0  0  0  0  0  0  0
   46.3387   52.9289    4.7958 H   0  0  0  0  0  0  0  0  0  0  0  0
   43.7611   53.8034    4.7147 N   0  0  0  0  0  0  0  0  0  0  0  0
   43.9278   53.5992    3.2694 C   0  0  0  0  0  0  0  0  0  0  0  0
   42.7364   53.8133    4.9296 H   0  0  0  0  0  0  0  0  0  0  0  0
   44.1472   52.9710    5.2145 H   0  0  0  0  0  0  0  0  0  0  0  0
   43.3182   54.7657    2.4605 C   0  0  0  0  0  0  0  0  0  0  0  0
   43.4967   54.5072    1.0870 O   0  0  0  0  0  0  0  0  0  0  0  0
   41.8238   54.9663    2.7492 C   0  0  0  0  0  0  0  0  0  0  0  0
   43.3376   55.3617    0.6108 H   0  0  0  0  0  0  0  0  0  0  0  0
   48.5577   54.3063    4.8643 C   0  0  0  0  0  0  0  0  0  0  0  0
   49.9740   54.7057    4.4130 C   0  0  0  0  0  0  0  0  0  0  0  0
   50.6563   55.6118    5.4066 C   0  0  0  0  0  0  0  0  0  0  0  0
   50.5711   55.4040    6.6452 O   0  0  0  0  0  0  0  0  0  0  0  0
   51.4269   56.7169    4.9383 N   0  0  0  0  0  0  0  0  0  0  0  0
   51.9187   57.3395    5.6138 H   0  0  0  0  0  0  0  0  0  0  0  0
   51.5478   56.8864    3.9125 H   0  0  0  0  0  0  0  0  0  0  0  0
   48.7375   56.0349    1.0424 C   0  0  0  0  0  0  0  0  0  0  0  0
   49.1252   56.2540   -0.4349 C   0  0  0  0  0  0  0  0  0  0  0  0
   50.5779   56.5637   -0.7156 C   0  0  0  0  0  0  0  0  0  0  0  0
   51.2422   55.7403   -1.3937 O   0  0  0  0  0  0  0  0  0  0  0  0
   51.2412   57.7259   -0.2071 N   0  0  0  0  0  0  0  0  0  0  0  0
   50.8125   58.3534    0.5038 H   0  0  0  0  0  0  0  0  0  0  0  0
   52.2416   57.9046   -0.4615 H   0  0  0  0  0  0  0  0  0  0  0  0
   47.1067   57.3862    8.1759 C   0  0  0  0  0  0  0  0  0  0  0  0
   47.9443   56.7377    7.2518 O   0  0  0  0  0  0  0  0  0  0  0  0
   48.8682   57.0625    7.4324 H   0  0  0  0  0  0  0  0  0  0  0  0
   44.4529   59.8906   11.3533 C   0  0  0  0  0  0  0  0  0  0  0  0
   45.5339   59.4181   12.2839 C   0  0  0  0  0  0  0  0  0  0  0  0
   45.4450   58.3524   13.1604 C   0  0  0  0  0  0  0  0  0  0  0  0
   46.5873   58.2732   13.8739 N   0  0  0  0  0  0  0  0  0  0  0  0
   47.3440   59.2949   13.4101 C   0  0  0  0  0  0  0  0  0  0  0  0
   46.7319   60.0014   12.4374 N   0  0  0  0  0  0  0  0  0  0  0  0
   47.1040   60.8423   11.9456 H   0  0  0  0  0  0  0  0  0  0  0  0
 95 96  1  0  0  0
 96 91  1  0  0  0
 91 92  2  0  0  0
 91 93  1  0  0  0
 93 90  1  0  0  0
 90103  1  0  0  0
103104  1  0  0  0
104105  1  0  0  0
105106  2  0  0  0
105107  1  0  0  0
 90 86  1  0  0  0
 86 87  2  0  0  0
 86 88  1  0  0  0
 88 85  1  0  0  0
 85110  1  0  0  0
110111  1  0  0  0
111112  1  0  0  0
112113  2  0  0  0
112114  1  0  0  0
 85 81  1  0  0  0
 81 82  2  0  0  0
 81 83  1  0  0  0
 83 79  1  0  0  0
 79 80  1  0  0  0
 79 75  1  0  0  0
 75 76  2  0  0  0
 75 77  1  0  0  0
 77 74  1  0  0  0
 74117  1  0  0  0
117118  1  0  0  0
 74 70  1  0  0  0
 70 71  2  0  0  0
 70 72  1  0  0  0
 72 69  1  0  0  0
 69120  1  0  0  0
120121  1  0  0  0
121122  2  0  0  0
122123  1  0  0  0
123124  2  0  0  0
124125  1  0  0  0
 69 65  1  0  0  0
 65 66  2  0  0  0
 65 67  1  0  0  0
 67  1  1  0  0  0
  1  2  1  0  0  0
  2  3  2  0  0  0
  3  4  1  0  0  0
  4  5  2  0  0  0
  5  6  1  0  0  0
  5  7  1  0  0  0
  7  8  2  0  0  0
  1 10  1  0  0  0
 10 11  2  0  0  0
 10 12  1  0  0  0
 12 14  1  0  0  0
 14 58  1  0  0  0
 58 59  1  0  0  0
 59 60  1  0  0  0
 60 61  1  0  0  0
 61 62  1  0  0  0
 14 15  1  0  0  0
 15 16  2  0  0  0
 15 17  1  0  0  0
 17 19  1  0  0  0
 19 51  1  0  0  0
 51 52  1  0  0  0
 52 53  1  0  0  0
 53 54  2  0  0  0
 53 55  1  0  0  0
 19 20  1  0  0  0
 20 21  2  0  0  0
 20 22  1  0  0  0
 22 24  1  0  0  0
 24 44  1  0  0  0
 44 45  1  0  0  0
 45 46  2  0  0  0
 46 47  1  0  0  0
 47 48  2  0  0  0
 48 49  1  0  0  0
 24 25  1  0  0  0
 25 26  2  0  0  0
 25 27  1  0  0  0
 27 29  1  0  0  0
 29 41  1  0  0  0
 41 42  1  0  0  0
 29 30  1  0  0  0
 30 31  2  0  0  0
 30 32  1  0  0  0
 32 33  1  0  0  0
 33 34  1  0  0  0
 34 35  1  0  0  0
 35 36  1  0  0  0
 36 37  1  0  0  0
 37 38  1  0  0  0
 37 39  2  0  0  0
 96 99  1  0  0  0
 99100  1  0  0  0
 99101  1  0  0  0
125121  1  0  0  0
  8  2  1  0  0  0
 49 45  1  0  0  0
 36 32  1  0  0  0
 95 97  1  0  0  0
 95 98  1  0  0  0
 93 94  1  0  0  0
107108  1  0  0  0
107109  1  0  0  0
 88 89  1  0  0  0
114115  1  0  0  0
114116  1  0  0  0
 83 84  1  0  0  0
 77 78  1  0  0  0
118119  1  0  0  0
 72 73  1  0  0  0
125126  1  0  0  0
 67 68  1  0  0  0
  6  9  1  0  0  0
 12 13  1  0  0  0
 62 63  1  0  0  0
 62 64  1  0  0  0
 17 18  1  0  0  0
 55 56  1  0  0  0
 55 57  1  0  0  0
 22 23  1  0  0  0
 49 50  1  0  0  0
 27 28  1  0  0  0
 42 43  1  0  0  0
 38 40  1  0  0  0
100102  1  0  0  0
M  END
> <minimizedAffinity>
-5.58988

$$$$



126129  0  0  0  0  0  0  0  0999 V2000
   35.3808   91.1934   14.6790 C   0  0  0  0  0  0  0  0  0  0  0  0
   35.3708   89.7880   15.2344 C   0  0  0  0  0  0  0  0  0  0  0  0
   36.5035   88.9607   15.1302 C   0  0  0  0  0  0  0  0  0  0  0  0
   36.4983   87.6814   15.6911 C   0  0  0  0  0  0  0  0  0  0  0  0
   35.3564   87.2026   16.3457 C   0  0  0  0  0  0  0  0  0  0  0  0
   35.3620   85.9253   16.9048 O   0  0  0  0  0  0  0  0  0  0  0  0
   34.2190   88.0134   16.4396 C   0  0  0  0  0  0  0  0  0  0  0  0
   34.2313   89.3017   15.8948 C   0  0  0  0  0  0  0  0  0  0  0  0
   34.5336   85.5408   17.3438 H   0  0  0  0  0  0  0  0  0  0  0  0
   35.4141   92.2067   15.7931 C   0  0  0  0  0  0  0  0  0  0  0  0
   34.4253   92.9570   16.0047 O   0  0  0  0  0  0  0  0  0  0  0  0
   36.5965   92.3486   16.5922 N   0  0  0  0  0  0  0  0  0  0  0  0
   37.0692   91.4654   16.8938 H   0  0  0  0  0  0  0  0  0  0  0  0
   37.3884   93.5856   16.6927 C   0  0  0  0  0  0  0  0  0  0  0  0
   38.3847   93.6275   15.5581 C   0  0  0  0  0  0  0  0  0  0  0  0
   38.6837   92.5731   14.9277 O   0  0  0  0  0  0  0  0  0  0  0  0
   39.0021   94.8735   15.2065 N   0  0  0  0  0  0  0  0  0  0  0  0
   38.5868   95.7526   15.5915 H   0  0  0  0  0  0  0  0  0  0  0  0
   40.3679   94.9346   14.6735 C   0  0  0  0  0  0  0  0  0  0  0  0
   40.5986   96.2704   14.0087 C   0  0  0  0  0  0  0  0  0  0  0  0
   40.2339   97.3246   14.5935 O   0  0  0  0  0  0  0  0  0  0  0  0
   41.2891   96.3462   12.7479 N   0  0  0  0  0  0  0  0  0  0  0  0
   41.6389   95.4474   12.3386 H   0  0  0  0  0  0  0  0  0  0  0  0
   41.7574   97.6270   12.1925 C   0  0  0  0  0  0  0  0  0  0  0  0
   43.0567   98.0778   12.8291 C   0  0  0  0  0  0  0  0  0  0  0  0
   43.5803   97.3706   13.7326 O   0  0  0  0  0  0  0  0  0  0  0  0
   43.6437   99.3607   12.5382 N   0  0  0  0  0  0  0  0  0  0  0  0
   44.0574   99.8710   13.3543 H   0  0  0  0  0  0  0  0  0  0  0  0
   44.0147   99.8619   11.2021 C   0  0  0  0  0  0  0  0  0  0  0  0
   43.5977  101.3030   11.0126 C   0  0  0  0  0  0  0  0  0  0  0  0
   43.9240  101.9188    9.9677 O   0  0  0  0  0  0  0  0  0  0  0  0
   42.9429  102.0301   12.0611 N   0  0  0  0  0  0  0  0  0  0  0  0
   41.4980  102.1439   12.1568 C   0  0  0  0  0  0  0  0  0  0  0  0
   41.2399  103.3205   13.0865 C   0  0  0  0  0  0  0  0  0  0  0  0
   42.5476  103.5384   13.8447 C   0  0  0  0  0  0  0  0  0  0  0  0
   43.6422  102.9392   12.9600 C   0  0  0  0  0  0  0  0  0  0  0  0
   44.3659  104.0102   12.1908 C   0  0  0  0  0  0  0  0  0  0  0  0
   43.7071  104.6925   11.1781 O   0  0  0  0  0  0  0  0  0  0  0  0
   45.5742  104.2659   12.4421 O   0  0  0  0  0  0  0  0  0  0  0  0
   44.1809  105.4066   10.6384 H   0  0  0  0  0  0  0  0  0  0  0  0
   45.5111   99.6244   10.9135 C   0  0  0  0  0  0  0  0  0  0  0  0
   46.5849  100.4553   12.1329 S   0  0  0  0  0  0  0  0  0  0  0  0
   46.0463   99.8006   13.2504 H   0  0  0  0  0  0  0  0  0  0  0  0
   40.6598   98.7001   12.3588 C   0  0  0  0  0  0  0  0  0  0  0  0
   39.9141   98.9704   11.0773 C   0  0  0  0  0  0  0  0  0  0  0  0
   38.5859   98.7075   10.8310 C   0  0  0  0  0  0  0  0  0  0  0  0
   38.2945   99.0523    9.5618 N   0  0  0  0  0  0  0  0  0  0  0  0
   39.4632   99.5081    9.0621 C   0  0  0  0  0  0  0  0  0  0  0  0
   40.4662   99.4716    9.9582 N   0  0  0  0  0  0  0  0  0  0  0  0
   41.4652   99.7308    9.7998 H   0  0  0  0  0  0  0  0  0  0  0  0
   41.3904   94.7310   15.8117 C   0  0  0  0  0  0  0  0  0  0  0  0
   41.8570   93.2698   15.9270 C   0  0  0  0  0  0  0  0  0  0  0  0
   42.0915   92.6648   14.5704 C   0  0  0  0  0  0  0  0  0  0  0  0
   43.0075   93.1160   13.8321 O   0  0  0  0  0  0  0  0  0  0  0  0
   41.2759   91.5866   14.1075 N   0  0  0  0  0  0  0  0  0  0  0  0
   41.4681   91.1386   13.1838 H   0  0  0  0  0  0  0  0  0  0  0  0
   40.4720   91.2363   14.6732 H   0  0  0  0  0  0  0  0  0  0  0  0
   38.0567   93.7768   18.0780 C   0  0  0  0  0  0  0  0  0  0  0  0
   39.0657   92.6623   18.4043 C   0  0  0  0  0  0  0  0  0  0  0  0
   38.7788   91.9659   19.7468 C   0  0  0  0  0  0  0  0  0  0  0  0
   37.9015   90.7002   19.6490 C   0  0  0  0  0  0  0  0  0  0  0  0
   37.8231   90.1735   18.2843 N   0  0  0  0  0  0  0  0  0  0  0  0
   38.7507   89.7595   18.0273 H   0  0  0  0  0  0  0  0  0  0  0  0
   37.6279   90.9556   17.6260 H   0  0  0  0  0  0  0  0  0  0  0  0
   36.3061   91.3902   12.3525 C   0  0  0  0  0  0  0  0  0  0  0  0
   35.6157   90.4877   11.8083 O   0  0  0  0  0  0  0  0  0  0  0  0
   36.5144   91.3753   13.7671 N   0  0  0  0  0  0  0  0  0  0  0  0
   37.4460   91.6691   14.1431 H   0  0  0  0  0  0  0  0  0  0  0  0
   36.7297   92.5932   11.5617 C   0  0  0  0  0  0  0  0  0  0  0  0
   39.2062   92.8887   11.0384 C   0  0  0  0  0  0  0  0  0  0  0  0
   40.3368   92.5180   11.4694 O   0  0  0  0  0  0  0  0  0  0  0  0
   38.0989   92.9371   11.9543 N   0  0  0  0  0  0  0  0  0  0  0  0
   38.3371   92.8973   12.9688 H   0  0  0  0  0  0  0  0  0  0  0  0
   39.0589   93.3673    9.6095 C   0  0  0  0  0  0  0  0  0  0  0  0
   39.6102   92.5883    7.2625 C   0  0  0  0  0  0  0  0  0  0  0  0
   38.4499   92.8767    6.8583 O   0  0  0  0  0  0  0  0  0  0  0  0
   39.8952   92.6048    8.6710 N   0  0  0  0  0  0  0  0  0  0  0  0
   40.7426   92.0952    9.0022 H   0  0  0  0  0  0  0  0  0  0  0  0
   40.7084   92.2471    6.2833 C   0  0  0  0  0  0  0  0  0  0  0  0
   40.2587   91.0841    5.3999 C   0  0  0  0  0  0  0  0  0  0  0  0
   43.2267   92.5258    6.6095 C   0  0  0  0  0  0  0  0  0  0  0  0
   43.3086   93.2689    5.5942 O   0  0  0  0  0  0  0  0  0  0  0  0
   41.9740   91.9118    6.9589 N   0  0  0  0  0  0  0  0  0  0  0  0
   41.9885   91.2386    7.7541 H   0  0  0  0  0  0  0  0  0  0  0  0
   44.4542   92.2848    7.4533 C   0  0  0  0  0  0  0  0  0  0  0  0
   46.4985   93.7802    7.5969 C   0  0  0  0  0  0  0  0  0  0  0  0
   47.6875   93.3966    7.7803 O   0  0  0  0  0  0  0  0  0  0  0  0
   45.6131   92.9442    6.8427 N   0  0  0  0  0  0  0  0  0  0  0  0
   46.0306   92.4834    6.0090 H   0  0  0  0  0  0  0  0  0  0  0  0
   46.1135   95.1796    8.0474 C   0  0  0  0  0  0  0  0  0  0  0  0
   47.9366   96.9095    8.0739 C   0  0  0  0  0  0  0  0  0  0  0  0
   48.8415   96.2473    8.6528 O   0  0  0  0  0  0  0  0  0  0  0  0
   46.8960   96.2188    7.3745 N   0  0  0  0  0  0  0  0  0  0  0  0
   46.7384   96.4419    6.3686 H   0  0  0  0  0  0  0  0  0  0  0  0
   48.9589   98.8784    9.1024 N   0  0  0  0  0  0  0  0  0  0  0  0
   47.8976   98.4181    8.1968 C   0  0  0  0  0  0  0  0  0  0  0  0
   48.8267   99.9035    9.2701 H   0  0  0  0  0  0  0  0  0  0  0  0
   48.8248   98.4199   10.0317 H   0  0  0  0  0  0  0  0  0  0  0  0
   47.9942   99.1072    6.8176 C   0  0  0  0  0  0  0  0  0  0  0  0
   46.7726   99.7552    6.5478 O   0  0  0  0  0  0  0  0  0  0  0  0
   49.1373  100.1297    6.7477 C   0  0  0  0  0  0  0  0  0  0  0  0
   46.7653   99.9627    5.5787 H   0  0  0  0  0  0  0  0  0  0  0  0
   46.2056   95.3255    9.5762 C   0  0  0  0  0  0  0  0  0  0  0  0
   44.9936   96.0299   10.2118 C   0  0  0  0  0  0  0  0  0  0  0  0
   44.2187   95.1180   11.1293 C   0  0  0  0  0  0  0  0  0  0  0  0
   43.1146   94.6250   10.7795 O   0  0  0  0  0  0  0  0  0  0  0  0
   44.7503   94.7926   12.4122 N   0  0  0  0  0  0  0  0  0  0  0  0
   44.2337   94.1487   13.0481 H   0  0  0  0  0  0  0  0  0  0  0  0
   45.6858   95.1558   12.7097 H   0  0  0  0  0  0  0  0  0  0  0  0
   44.7594   90.7900    7.7705 C   0  0  0  0  0  0  0  0  0  0  0  0
   46.2128   90.3002    7.6003 C   0  0  0  0  0  0  0  0  0  0  0  0
   46.6414   89.1368    8.4650 C   0  0  0  0  0  0  0  0  0  0  0  0
   46.2538   87.9843    8.1478 O   0  0  0  0  0  0  0  0  0  0  0  0
   47.4282   89.2929    9.6507 N   0  0  0  0  0  0  0  0  0  0  0  0
   47.6318   90.2219   10.0733 H   0  0  0  0  0  0  0  0  0  0  0  0
   47.7223   88.4462   10.1928 H   0  0  0  0  0  0  0  0  0  0  0  0
   39.3962   94.8712    9.5396 C   0  0  0  0  0  0  0  0  0  0  0  0
   39.3143   95.4633   10.8119 O   0  0  0  0  0  0  0  0  0  0  0  0
   40.2068   95.3431   11.2368 H   0  0  0  0  0  0  0  0  0  0  0  0
   35.7802   93.7862   11.7765 C   0  0  0  0  0  0  0  0  0  0  0  0
   35.8195   94.7118   10.5936 C   0  0  0  0  0  0  0  0  0  0  0  0
   35.5814   94.3612    9.2774 C   0  0  0  0  0  0  0  0  0  0  0  0
   35.7705   95.4425    8.4930 N   0  0  0  0  0  0  0  0  0  0  0  0
   36.1180   96.4258    9.3554 C   0  0  0  0  0  0  0  0  0  0  0  0
   36.1469   96.0117   10.6390 N   0  0  0  0  0  0  0  0  0  0  0  0
   36.4076   96.5791   11.4743 H   0  0  0  0  0  0  0  0  0  0  0  0
 95 96  1  0  0  0
 96 91  1  0  0  0
 91 92  2  0  0  0
 91 93  1  0  0  0
 93 90  1  0  0  0
 90103  1  0  0  0
103104  1  0  0  0
104105  1  0  0  0
105106  2  0  0  0
105107  1  0  0  0
 90 86  1  0  0  0
 86 87  2  0  0  0
 86 88  1  0  0  0
 88 85  1  0  0  0
 85110  1  0  0  0
110111  1  0  0  0
111112  1  0  0  0
112113  2  0  0  0
112114  1  0  0  0
 85 81  1  0  0  0
 81 82  2  0  0  0
 81 83  1  0  0  0
 83 79  1  0  0  0
 79 80  1  0  0  0
 79 75  1  0  0  0
 75 76  2  0  0  0
 75 77  1  0  0  0
 77 74  1  0  0  0
 74117  1  0  0  0
117118  1  0  0  0
 74 70  1  0  0  0
 70 71  2  0  0  0
 70 72  1  0  0  0
 72 69  1  0  0  0
 69120  1  0  0  0
120121  1  0  0  0
121122  2  0  0  0
122123  1  0  0  0
123124  2  0  0  0
124125  1  0  0  0
 69 65  1  0  0  0
 65 66  2  0  0  0
 65 67  1  0  0  0
 67  1  1  0  0  0
  1  2  1  0  0  0
  2  3  2  0  0  0
  3  4  1  0  0  0
  4  5  2  0  0  0
  5  6  1  0  0  0
  5  7  1  0  0  0
  7  8  2  0  0  0
  1 10  1  0  0  0
 10 11  2  0  0  0
 10 12  1  0  0  0
 12 14  1  0  0  0
 14 58  1  0  0  0
 58 59  1  0  0  0
 59 60  1  0  0  0
 60 61  1  0  0  0
 61 62  1  0  0  0
 14 15  1  0  0  0
 15 16  2  0  0  0
 15 17  1  0  0  0
 17 19  1  0  0  0
 19 51  1  0  0  0
 51 52  1  0  0  0
 52 53  1  0  0  0
 53 54  2  0  0  0
 53 55  1  0  0  0
 19 20  1  0  0  0
 20 21  2  0  0  0
 20 22  1  0  0  0
 22 24  1  0  0  0
 24 44  1  0  0  0
 44 45  1  0  0  0
 45 46  2  0  0  0
 46 47  1  0  0  0
 47 48  2  0  0  0
 48 49  1  0  0  0
 24 25  1  0  0  0
 25 26  2  0  0  0
 25 27  1  0  0  0
 27 29  1  0  0  0
 29 41  1  0  0  0
 41 42  1  0  0  0
 29 30  1  0  0  0
 30 31  2  0  0  0
 30 32  1  0  0  0
 32 33  1  0  0  0
 33 34  1  0  0  0
 34 35  1  0  0  0
 35 36  1  0  0  0
 36 37  1  0  0  0
 37 38  1  0  0  0
 37 39  2  0  0  0
 96 99  1  0  0  0
 99100  1  0  0  0
 99101  1  0  0  0
125121  1  0  0  0
  8  2  1  0  0  0
 49 45  1  0  0  0
 36 32  1  0  0  0
 95 97  1  0  0  0
 95 98  1  0  0  0
 93 94  1  0  0  0
107108  1  0  0  0
107109  1  0  0  0
 88 89  1  0  0  0
114115  1  0  0  0
114116  1  0  0  0
 83 84  1  0  0  0
 77 78  1  0  0  0
118119  1  0  0  0
 72 73  1  0  0  0
125126  1  0  0  0
 67 68  1  0  0  0
  6  9  1  0  0  0
 12 13  1  0  0  0
 62 63  1  0  0  0
 62 64  1  0  0  0
 17 18  1  0  0  0
 55 56  1  0  0  0
 55 57  1  0  0  0
 22 23  1  0  0  0
 49 50  1  0  0  0
 27 28  1  0  0  0
 42 43  1  0  0  0
 38 40  1  0  0  0
100102  1  0  0  0
M  END
> <minimizedAffinity>
-5.58320

$$$$



126129  0  0  0  0  0  0  0  0999 V2000
   46.7161   57.5175    6.3596 C   0  0  0  0  0  0  0  0  0  0  0  0
   45.6674   57.0610    5.3719 C   0  0  0  0  0  0  0  0  0  0  0  0
   45.3414   57.8433    4.2493 C   0  0  0  0  0  0  0  0  0  0  0  0
   44.4059   57.3871    3.3176 C   0  0  0  0  0  0  0  0  0  0  0  0
   43.7683   56.1541    3.5036 C   0  0  0  0  0  0  0  0  0  0  0  0
   42.8380   55.7062    2.5665 O   0  0  0  0  0  0  0  0  0  0  0  0
   44.0748   55.3766    4.6268 C   0  0  0  0  0  0  0  0  0  0  0  0
   45.0260   55.8248    5.5494 C   0  0  0  0  0  0  0  0  0  0  0  0
   42.3316   54.8391    2.7026 H   0  0  0  0  0  0  0  0  0  0  0  0
   47.1785   58.9147    6.0384 C   0  0  0  0  0  0  0  0  0  0  0  0
   46.4628   59.9083    6.3318 O   0  0  0  0  0  0  0  0  0  0  0  0
   48.4232   59.1138    5.3545 N   0  0  0  0  0  0  0  0  0  0  0  0
   49.2319   58.5300    5.6701 H   0  0  0  0  0  0  0  0  0  0  0  0
   48.5550   59.7642    4.0404 C   0  0  0  0  0  0  0  0  0  0  0  0
   48.8618   58.7145    2.9985 C   0  0  0  0  0  0  0  0  0  0  0  0
   49.2655   59.0509    1.8486 O   0  0  0  0  0  0  0  0  0  0  0  0
   48.6794   57.3281    3.3181 N   0  0  0  0  0  0  0  0  0  0  0  0
   48.5542   57.0689    4.3234 H   0  0  0  0  0  0  0  0  0  0  0  0
   48.2837   56.3473    2.3009 C   0  0  0  0  0  0  0  0  0  0  0  0
   49.4702   56.0031    1.4330 C   0  0  0  0  0  0  0  0  0  0  0  0
   49.4990   56.3994    0.2378 O   0  0  0  0  0  0  0  0  0  0  0  0
   50.5903   55.2854    1.9827 N   0  0  0  0  0  0  0  0  0  0  0  0
   50.5509   55.0437    3.0015 H   0  0  0  0  0  0  0  0  0  0  0  0
   51.8630   55.1522    1.2543 C   0  0  0  0  0  0  0  0  0  0  0  0
   52.2779   53.7027    1.1016 C   0  0  0  0  0  0  0  0  0  0  0  0
   51.9310   52.8649    1.9781 O   0  0  0  0  0  0  0  0  0  0  0  0
   53.1771   53.2722    0.0617 N   0  0  0  0  0  0  0  0  0  0  0  0
   53.8927   52.5597    0.3407 H   0  0  0  0  0  0  0  0  0  0  0  0
   52.9850   53.4682   -1.3870 C   0  0  0  0  0  0  0  0  0  0  0  0
   51.5407   53.2702   -1.7888 C   0  0  0  0  0  0  0  0  0  0  0  0
   50.7518   54.2475   -1.7974 O   0  0  0  0  0  0  0  0  0  0  0  0
   51.0129   51.9604   -2.0392 N   0  0  0  0  0  0  0  0  0  0  0  0
   50.9443   51.3802   -3.3690 C   0  0  0  0  0  0  0  0  0  0  0  0
   49.9460   50.2364   -3.2665 C   0  0  0  0  0  0  0  0  0  0  0  0
   49.8341   49.9224   -1.7761 C   0  0  0  0  0  0  0  0  0  0  0  0
   50.2550   51.2024   -1.0520 C   0  0  0  0  0  0  0  0  0  0  0  0
   49.0563   51.9778   -0.5785 C   0  0  0  0  0  0  0  0  0  0  0  0
   49.1664   52.8018    0.5324 O   0  0  0  0  0  0  0  0  0  0  0  0
   47.9485   51.8565   -1.1672 O   0  0  0  0  0  0  0  0  0  0  0  0
   48.3677   53.3207    0.8764 H   0  0  0  0  0  0  0  0  0  0  0  0
   53.5582   54.8243   -1.8468 C   0  0  0  0  0  0  0  0  0  0  0  0
   54.4307   54.6936   -3.4443 S   0  0  0  0  0  0  0  0  0  0  0  0
   53.3277   54.2007   -4.1569 H   0  0  0  0  0  0  0  0  0  0  0  0
   52.9613   55.9684    1.9696 C   0  0  0  0  0  0  0  0  0  0  0  0
   53.0716   57.3769    1.4449 C   0  0  0  0  0  0  0  0  0  0  0  0
   54.1702   58.2009    1.5340 C   0  0  0  0  0  0  0  0  0  0  0  0
   53.8741   59.3942    0.9837 N   0  0  0  0  0  0  0  0  0  0  0  0
   52.5911   59.2684    0.5819 C   0  0  0  0  0  0  0  0  0  0  0  0
   52.0754   58.0545    0.8474 N   0  0  0  0  0  0  0  0  0  0  0  0
   51.0987   57.7301    0.6709 H   0  0  0  0  0  0  0  0  0  0  0  0
   47.7410   55.0711    2.9785 C   0  0  0  0  0  0  0  0  0  0  0  0
   46.5899   54.4296    2.1849 C   0  0  0  0  0  0  0  0  0  0  0  0
   46.3753   52.9995    2.5975 C   0  0  0  0  0  0  0  0  0  0  0  0
   46.3139   52.7018    3.8202 O   0  0  0  0  0  0  0  0  0  0  0  0
   46.2499   51.9725    1.6118 N   0  0  0  0  0  0  0  0  0  0  0  0
   46.0571   50.9869    1.8984 H   0  0  0  0  0  0  0  0  0  0  0  0
   46.3590   52.1833    0.5956 H   0  0  0  0  0  0  0  0  0  0  0  0
   49.5782   60.9284    4.0305 C   0  0  0  0  0  0  0  0  0  0  0  0
   50.9190   60.5399    4.6770 C   0  0  0  0  0  0  0  0  0  0  0  0
   51.6981   61.7517    5.2197 C   0  0  0  0  0  0  0  0  0  0  0  0
   52.6827   62.3932    4.2196 C   0  0  0  0  0  0  0  0  0  0  0  0
   53.3653   61.4007    3.3859 N   0  0  0  0  0  0  0  0  0  0  0  0
   52.6753   60.9939    2.7103 H   0  0  0  0  0  0  0  0  0  0  0  0
   53.7155   60.6288    3.9897 H   0  0  0  0  0  0  0  0  0  0  0  0
   46.9645   57.9537    8.8203 C   0  0  0  0  0  0  0  0  0  0  0  0
   48.1832   57.6549    8.9330 O   0  0  0  0  0  0  0  0  0  0  0  0
   46.1995   57.4351    7.7293 N   0  0  0  0  0  0  0  0  0  0  0  0
   45.2035   57.1604    7.8968 H   0  0  0  0  0  0  0  0  0  0  0  0
   46.3664   59.0159    9.6956 C   0  0  0  0  0  0  0  0  0  0  0  0
   47.0075   59.2445   12.1513 C   0  0  0  0  0  0  0  0  0  0  0  0
   47.5857   58.5873   13.0653 O   0  0  0  0  0  0  0  0  0  0  0  0
   46.3769   58.5268   11.0768 N   0  0  0  0  0  0  0  0  0  0  0  0
   46.2210   57.5074   11.2316 H   0  0  0  0  0  0  0  0  0  0  0  0
   46.8999   60.7514   12.2527 C   0  0  0  0  0  0  0  0  0  0  0  0
   49.0691   61.9450   11.7152 C   0  0  0  0  0  0  0  0  0  0  0  0
   49.0136   61.5738   10.5102 O   0  0  0  0  0  0  0  0  0  0  0  0
   48.1608   61.3790   12.6744 N   0  0  0  0  0  0  0  0  0  0  0  0
   48.4024   61.4678   13.6849 H   0  0  0  0  0  0  0  0  0  0  0  0
   50.0634   62.9924   12.1575 C   0  0  0  0  0  0  0  0  0  0  0  0
   49.8798   63.2701   13.6490 C   0  0  0  0  0  0  0  0  0  0  0  0
   48.7063   64.9845   11.3116 C   0  0  0  0  0  0  0  0  0  0  0  0
   47.6411   64.4993   11.7804 O   0  0  0  0  0  0  0  0  0  0  0  0
   49.9359   64.2427   11.3887 N   0  0  0  0  0  0  0  0  0  0  0  0
   50.7622   64.6549   10.9057 H   0  0  0  0  0  0  0  0  0  0  0  0
   48.6793   66.3489   10.6676 C   0  0  0  0  0  0  0  0  0  0  0  0
   48.2902   67.3145    8.3542 C   0  0  0  0  0  0  0  0  0  0  0  0
   49.0460   67.1708    7.3530 O   0  0  0  0  0  0  0  0  0  0  0  0
   48.1786   66.2390    9.2937 N   0  0  0  0  0  0  0  0  0  0  0  0
   48.1404   65.2845    8.8823 H   0  0  0  0  0  0  0  0  0  0  0  0
   47.4160   68.5555    8.4270 C   0  0  0  0  0  0  0  0  0  0  0  0
   45.7778   68.7815   10.3196 C   0  0  0  0  0  0  0  0  0  0  0  0
   45.9131   70.0120   10.5645 O   0  0  0  0  0  0  0  0  0  0  0  0
   46.1045   68.2818    9.0186 N   0  0  0  0  0  0  0  0  0  0  0  0
   45.3757   67.7584    8.4883 H   0  0  0  0  0  0  0  0  0  0  0  0
   44.6631   68.5547   12.4843 N   0  0  0  0  0  0  0  0  0  0  0  0
   45.3640   67.8257   11.4186 C   0  0  0  0  0  0  0  0  0  0  0  0
   44.5059   67.8975   13.2841 H   0  0  0  0  0  0  0  0  0  0  0  0
   45.2979   69.2995   12.8504 H   0  0  0  0  0  0  0  0  0  0  0  0
   44.5067   66.6624   10.8724 C   0  0  0  0  0  0  0  0  0  0  0  0
   45.3400   65.7848   10.1508 O   0  0  0  0  0  0  0  0  0  0  0  0
   43.7917   65.8832   11.9853 C   0  0  0  0  0  0  0  0  0  0  0  0
   44.7462   65.2059    9.6082 H   0  0  0  0  0  0  0  0  0  0  0  0
   47.2688   69.2236    7.0489 C   0  0  0  0  0  0  0  0  0  0  0  0
   47.7273   70.6924    7.0132 C   0  0  0  0  0  0  0  0  0  0  0  0
   46.8913   71.5741    7.9063 C   0  0  0  0  0  0  0  0  0  0  0  0
   45.6450   71.6628    7.7541 O   0  0  0  0  0  0  0  0  0  0  0  0
   47.5181   72.3111    8.9544 N   0  0  0  0  0  0  0  0  0  0  0  0
   46.9491   72.9093    9.5902 H   0  0  0  0  0  0  0  0  0  0  0  0
   48.5464   72.2218    9.1281 H   0  0  0  0  0  0  0  0  0  0  0  0
   50.0252   67.1327   10.7153 C   0  0  0  0  0  0  0  0  0  0  0  0
   50.1618   68.2662   11.7533 C   0  0  0  0  0  0  0  0  0  0  0  0
   49.2722   69.4729   11.5601 C   0  0  0  0  0  0  0  0  0  0  0  0
   49.4246   70.1653   10.5226 O   0  0  0  0  0  0  0  0  0  0  0  0
   48.2985   69.8880   12.5239 N   0  0  0  0  0  0  0  0  0  0  0  0
   48.2398   69.4771   13.4782 H   0  0  0  0  0  0  0  0  0  0  0  0
   47.6878   70.7145   12.3208 H   0  0  0  0  0  0  0  0  0  0  0  0
   45.7595   61.1155   13.2261 C   0  0  0  0  0  0  0  0  0  0  0  0
   44.7244   60.1665   13.1634 O   0  0  0  0  0  0  0  0  0  0  0  0
   44.9638   59.4451   13.8068 H   0  0  0  0  0  0  0  0  0  0  0  0
   44.9386   59.3876    9.2549 C   0  0  0  0  0  0  0  0  0  0  0  0
   44.6695   60.8437    9.5103 C   0  0  0  0  0  0  0  0  0  0  0  0
   45.3197   61.9084    8.9141 C   0  0  0  0  0  0  0  0  0  0  0  0
   44.8528   63.0595    9.4405 N   0  0  0  0  0  0  0  0  0  0  0  0
   43.9269   62.6637   10.3447 C   0  0  0  0  0  0  0  0  0  0  0  0
   43.7888   61.3229   10.4013 N   0  0  0  0  0  0  0  0  0  0  0  0
   43.1583   60.7845   11.0338 H   0  0  0  0  0  0  0  0  0  0  0  0
 95 96  1  0  0  0
 96 91  1  0  0  0
 91 92  2  0  0  0
 91 93  1  0  0  0
 93 90  1  0  0  0
 90103  1  0  0  0
103104  1  0  0  0
104105  1  0  0  0
105106  2  0  0  0
105107  1  0  0  0
 90 86  1  0  0  0
 86 87  2  0  0  0
 86 88  1  0  0  0
 88 85  1  0  0  0
 85110  1  0  0  0
110111  1  0  0  0
111112  1  0  0  0
112113  2  0  0  0
112114  1  0  0  0
 85 81  1  0  0  0
 81 82  2  0  0  0
 81 83  1  0  0  0
 83 79  1  0  0  0
 79 80  1  0  0  0
 79 75  1  0  0  0
 75 76  2  0  0  0
 75 77  1  0  0  0
 77 74  1  0  0  0
 74117  1  0  0  0
117118  1  0  0  0
 74 70  1  0  0  0
 70 71  2  0  0  0
 70 72  1  0  0  0
 72 69  1  0  0  0
 69120  1  0  0  0
120121  1  0  0  0
121122  2  0  0  0
122123  1  0  0  0
123124  2  0  0  0
124125  1  0  0  0
 69 65  1  0  0  0
 65 66  2  0  0  0
 65 67  1  0  0  0
 67  1  1  0  0  0
  1  2  1  0  0  0
  2  3  2  0  0  0
  3  4  1  0  0  0
  4  5  2  0  0  0
  5  6  1  0  0  0
  5  7  1  0  0  0
  7  8  2  0  0  0
  1 10  1  0  0  0
 10 11  2  0  0  0
 10 12  1  0  0  0
 12 14  1  0  0  0
 14 58  1  0  0  0
 58 59  1  0  0  0
 59 60  1  0  0  0
 60 61  1  0  0  0
 61 62  1  0  0  0
 14 15  1  0  0  0
 15 16  2  0  0  0
 15 17  1  0  0  0
 17 19  1  0  0  0
 19 51  1  0  0  0
 51 52  1  0  0  0
 52 53  1  0  0  0
 53 54  2  0  0  0
 53 55  1  0  0  0
 19 20  1  0  0  0
 20 21  2  0  0  0
 20 22  1  0  0  0
 22 24  1  0  0  0
 24 44  1  0  0  0
 44 45  1  0  0  0
 45 46  2  0  0  0
 46 47  1  0  0  0
 47 48  2  0  0  0
 48 49  1  0  0  0
 24 25  1  0  0  0
 25 26  2  0  0  0
 25 27  1  0  0  0
 27 29  1  0  0  0
 29 41  1  0  0  0
 41 42  1  0  0  0
 29 30  1  0  0  0
 30 31  2  0  0  0
 30 32  1  0  0  0
 32 33  1  0  0  0
 33 34  1  0  0  0
 34 35  1  0  0  0
 35 36  1  0  0  0
 36 37  1  0  0  0
 37 38  1  0  0  0
 37 39  2  0  0  0
 96 99  1  0  0  0
 99100  1  0  0  0
 99101  1  0  0  0
125121  1  0  0  0
  8  2  1  0  0  0
 49 45  1  0  0  0
 36 32  1  0  0  0
 95 97  1  0  0  0
 95 98  1  0  0  0
 93 94  1  0  0  0
107108  1  0  0  0
107109  1  0  0  0
 88 89  1  0  0  0
114115  1  0  0  0
114116  1  0  0  0
 83 84  1  0  0  0
 77 78  1  0  0  0
118119  1  0  0  0
 72 73  1  0  0  0
125126  1  0  0  0
 67 68  1  0  0  0
  6  9  1  0  0  0
 12 13  1  0  0  0
 62 63  1  0  0  0
 62 64  1  0  0  0
 17 18  1  0  0  0
 55 56  1  0  0  0
 55 57  1  0  0  0
 22 23  1  0  0  0
 49 50  1  0  0  0
 27 28  1  0  0  0
 42 43  1  0  0  0
 38 40  1  0  0  0
100102  1  0  0  0
M  END
> <minimizedAffinity>
-5.55621

$$$$



126129  0  0  0  0  0  0  0  0999 V2000
   47.0802   73.0306   12.8154 C   0  0  0  0  0  0  0  0  0  0  0  0
   45.9515   73.7933   13.4695 C   0  0  0  0  0  0  0  0  0  0  0  0
   44.6222   73.6274   13.0410 C   0  0  0  0  0  0  0  0  0  0  0  0
   43.5823   74.3008   13.6862 C   0  0  0  0  0  0  0  0  0  0  0  0
   43.8565   75.1642   14.7544 C   0  0  0  0  0  0  0  0  0  0  0  0
   42.8113   75.8297   15.3938 O   0  0  0  0  0  0  0  0  0  0  0  0
   45.1785   75.3477   15.1768 C   0  0  0  0  0  0  0  0  0  0  0  0
   46.2175   74.6582   14.5430 C   0  0  0  0  0  0  0  0  0  0  0  0
   42.9892   76.4929   16.1391 H   0  0  0  0  0  0  0  0  0  0  0  0
   47.5589   73.7439   11.5780 C   0  0  0  0  0  0  0  0  0  0  0  0
   47.3629   74.9796   11.4362 O   0  0  0  0  0  0  0  0  0  0  0  0
   48.2046   73.0033   10.5334 N   0  0  0  0  0  0  0  0  0  0  0  0
   48.9057   72.2856   10.8297 H   0  0  0  0  0  0  0  0  0  0  0  0
   47.7006   72.8996    9.1540 C   0  0  0  0  0  0  0  0  0  0  0  0
   46.8585   71.6520    9.0285 C   0  0  0  0  0  0  0  0  0  0  0  0
   45.9320   71.5872    8.1705 O   0  0  0  0  0  0  0  0  0  0  0  0
   47.1084   70.5409    9.9004 N   0  0  0  0  0  0  0  0  0  0  0  0
   48.0013   70.5356   10.4446 H   0  0  0  0  0  0  0  0  0  0  0  0
   46.0308   69.6467   10.3391 C   0  0  0  0  0  0  0  0  0  0  0  0
   46.3596   68.2234    9.9577 C   0  0  0  0  0  0  0  0  0  0  0  0
   45.4892   67.5201    9.3797 O   0  0  0  0  0  0  0  0  0  0  0  0
   47.6773   67.6932   10.1914 N   0  0  0  0  0  0  0  0  0  0  0  0
   48.3879   68.3419   10.6062 H   0  0  0  0  0  0  0  0  0  0  0  0
   48.1152   66.4123    9.6118 C   0  0  0  0  0  0  0  0  0  0  0  0
   48.6783   65.4788   10.6644 C   0  0  0  0  0  0  0  0  0  0  0  0
   49.7648   65.7725   11.2336 O   0  0  0  0  0  0  0  0  0  0  0  0
   48.0882   64.1935   10.9382 N   0  0  0  0  0  0  0  0  0  0  0  0
   48.7600   63.4068   11.1039 H   0  0  0  0  0  0  0  0  0  0  0  0
   46.6891   63.9479   11.3334 C   0  0  0  0  0  0  0  0  0  0  0  0
   46.2416   64.9013   12.4184 C   0  0  0  0  0  0  0  0  0  0  0  0
   45.6178   65.9486   12.1158 O   0  0  0  0  0  0  0  0  0  0  0  0
   46.6262   64.7029   13.7857 N   0  0  0  0  0  0  0  0  0  0  0  0
   45.7899   64.0032   14.7453 C   0  0  0  0  0  0  0  0  0  0  0  0
   46.3195   64.3985   16.1159 C   0  0  0  0  0  0  0  0  0  0  0  0
   47.7248   64.9438   15.8708 C   0  0  0  0  0  0  0  0  0  0  0  0
   47.7405   65.4030   14.4118 C   0  0  0  0  0  0  0  0  0  0  0  0
   47.5687   66.8937   14.3096 C   0  0  0  0  0  0  0  0  0  0  0  0
   48.2034   67.5900   13.2910 O   0  0  0  0  0  0  0  0  0  0  0  0
   46.8780   67.5132   15.1626 O   0  0  0  0  0  0  0  0  0  0  0  0
   48.1127   68.5957   13.2134 H   0  0  0  0  0  0  0  0  0  0  0  0
   45.7548   63.9498   10.1062 C   0  0  0  0  0  0  0  0  0  0  0  0
   44.3270   62.8355   10.3297 S   0  0  0  0  0  0  0  0  0  0  0  0
   43.8484   63.4654   11.4880 H   0  0  0  0  0  0  0  0  0  0  0  0
   49.1486   66.6717    8.4943 C   0  0  0  0  0  0  0  0  0  0  0  0
   48.7496   67.8077    7.5879 C   0  0  0  0  0  0  0  0  0  0  0  0
   47.7458   67.7912    6.6466 C   0  0  0  0  0  0  0  0  0  0  0  0
   47.7162   68.9783    6.0105 N   0  0  0  0  0  0  0  0  0  0  0  0
   48.7166   69.6866    6.5768 C   0  0  0  0  0  0  0  0  0  0  0  0
   49.3632   69.0034    7.5388 N   0  0  0  0  0  0  0  0  0  0  0  0
   50.1919   69.3189    8.0902 H   0  0  0  0  0  0  0  0  0  0  0  0
   45.8451   69.7512   11.8679 C   0  0  0  0  0  0  0  0  0  0  0  0
   44.3672   69.8887   12.2715 C   0  0  0  0  0  0  0  0  0  0  0  0
   44.0775   69.1364   13.5409 C   0  0  0  0  0  0  0  0  0  0  0  0
   43.2634   68.1749   13.5286 O   0  0  0  0  0  0  0  0  0  0  0  0
   44.7124   69.5106   14.7653 N   0  0  0  0  0  0  0  0  0  0  0  0
   44.5439   68.9599   15.6366 H   0  0  0  0  0  0  0  0  0  0  0  0
   45.3423   70.3410   14.8150 H   0  0  0  0  0  0  0  0  0  0  0  0
   48.8194   72.9719    8.0837 C   0  0  0  0  0  0  0  0  0  0  0  0
   48.2995   73.4581    6.7199 C   0  0  0  0  0  0  0  0  0  0  0  0
   48.2853   74.9923    6.5943 C   0  0  0  0  0  0  0  0  0  0  0  0
   47.4288   75.5424    5.4345 C   0  0  0  0  0  0  0  0  0  0  0  0
   47.8879   75.0747    4.1244 N   0  0  0  0  0  0  0  0  0  0  0  0
   47.6665   74.0547    4.0323 H   0  0  0  0  0  0  0  0  0  0  0  0
   48.9210   75.1850    4.0641 H   0  0  0  0  0  0  0  0  0  0  0  0
   48.3979   71.5413   14.3494 C   0  0  0  0  0  0  0  0  0  0  0  0
   47.4337   70.9069   14.8548 O   0  0  0  0  0  0  0  0  0  0  0  0
   48.1788   72.8277   13.7651 N   0  0  0  0  0  0  0  0  0  0  0  0
   48.9094   73.5676   13.8852 H   0  0  0  0  0  0  0  0  0  0  0  0
   49.7265   70.8685   14.1643 C   0  0  0  0  0  0  0  0  0  0  0  0
   50.2754   70.4684   11.7082 C   0  0  0  0  0  0  0  0  0  0  0  0
   49.6925   70.1931   10.6193 O   0  0  0  0  0  0  0  0  0  0  0  0
   49.6618   70.0613   12.9431 N   0  0  0  0  0  0  0  0  0  0  0  0
   48.8979   69.3554   12.8682 H   0  0  0  0  0  0  0  0  0  0  0  0
   51.6409   71.1225   11.6933 C   0  0  0  0  0  0  0  0  0  0  0  0
   51.4322   73.6391   11.4877 C   0  0  0  0  0  0  0  0  0  0  0  0
   50.8186   73.7116   12.5882 O   0  0  0  0  0  0  0  0  0  0  0  0
   51.6671   72.3535   10.8899 N   0  0  0  0  0  0  0  0  0  0  0  0
   51.9024   72.3246    9.8744 H   0  0  0  0  0  0  0  0  0  0  0  0
   51.9417   74.8847   10.8021 C   0  0  0  0  0  0  0  0  0  0  0  0
   53.4666   74.8305   10.7167 C   0  0  0  0  0  0  0  0  0  0  0  0
   50.3540   76.8646   11.0934 C   0  0  0  0  0  0  0  0  0  0  0  0
   49.7431   76.5727   10.0297 O   0  0  0  0  0  0  0  0  0  0  0  0
   51.5151   76.1150   11.4911 N   0  0  0  0  0  0  0  0  0  0  0  0
   52.0292   76.4585   12.3299 H   0  0  0  0  0  0  0  0  0  0  0  0
   49.8575   78.0076   11.9441 C   0  0  0  0  0  0  0  0  0  0  0  0
   50.9743   80.2618   12.2717 C   0  0  0  0  0  0  0  0  0  0  0  0
   50.9648   80.9480   13.3316 O   0  0  0  0  0  0  0  0  0  0  0  0
   50.9901   78.8333   12.3755 N   0  0  0  0  0  0  0  0  0  0  0  0
   51.5977   78.4434   13.1242 H   0  0  0  0  0  0  0  0  0  0  0  0
   51.1304   80.9852   10.9443 C   0  0  0  0  0  0  0  0  0  0  0  0
   52.1925   79.7768    9.0133 C   0  0  0  0  0  0  0  0  0  0  0  0
   51.4555   80.1939    8.0778 O   0  0  0  0  0  0  0  0  0  0  0  0
   52.3211   80.5536   10.2088 N   0  0  0  0  0  0  0  0  0  0  0  0
   53.2748   80.8391   10.5174 H   0  0  0  0  0  0  0  0  0  0  0  0
   52.0301   77.5075    8.1169 N   0  0  0  0  0  0  0  0  0  0  0  0
   52.8605   78.4218    8.9123 C   0  0  0  0  0  0  0  0  0  0  0  0
   52.4487   76.5494    8.1732 H   0  0  0  0  0  0  0  0  0  0  0  0
   51.0909   77.4332    8.5690 H   0  0  0  0  0  0  0  0  0  0  0  0
   54.2904   78.5302    8.3376 C   0  0  0  0  0  0  0  0  0  0  0  0
   54.6010   79.8913    8.1481 O   0  0  0  0  0  0  0  0  0  0  0  0
   55.3443   77.8917    9.2533 C   0  0  0  0  0  0  0  0  0  0  0  0
   55.3944   79.9250    7.5551 H   0  0  0  0  0  0  0  0  0  0  0  0
   51.1224   82.5125   11.1298 C   0  0  0  0  0  0  0  0  0  0  0  0
   49.7830   83.1797   10.7697 C   0  0  0  0  0  0  0  0  0  0  0  0
   48.9522   83.4891   11.9895 C   0  0  0  0  0  0  0  0  0  0  0  0
   47.7026   83.6193   11.9122 O   0  0  0  0  0  0  0  0  0  0  0  0
   49.5881   83.6221   13.2593 N   0  0  0  0  0  0  0  0  0  0  0  0
   49.0231   83.8173   14.1129 H   0  0  0  0  0  0  0  0  0  0  0  0
   50.6200   83.4770   13.3569 H   0  0  0  0  0  0  0  0  0  0  0  0
   48.9671   77.5966   13.1551 C   0  0  0  0  0  0  0  0  0  0  0  0
   47.5760   78.2523   13.2811 C   0  0  0  0  0  0  0  0  0  0  0  0
   47.5248   79.7592   13.1737 C   0  0  0  0  0  0  0  0  0  0  0  0
   47.6724   80.4365   14.2219 O   0  0  0  0  0  0  0  0  0  0  0  0
   47.2710   80.4466   11.9439 N   0  0  0  0  0  0  0  0  0  0  0  0
   46.9621   79.9577   11.0787 H   0  0  0  0  0  0  0  0  0  0  0  0
   47.2791   81.4939   11.9243 H   0  0  0  0  0  0  0  0  0  0  0  0
   52.6835   70.1114   11.1726 C   0  0  0  0  0  0  0  0  0  0  0  0
   52.2460   68.7908   11.3748 O   0  0  0  0  0  0  0  0  0  0  0  0
   51.7005   68.5493   10.5775 H   0  0  0  0  0  0  0  0  0  0  0  0
   50.1053   69.9999   15.3780 C   0  0  0  0  0  0  0  0  0  0  0  0
   51.1917   69.0281   15.0131 C   0  0  0  0  0  0  0  0  0  0  0  0
   52.5245   69.3357   14.8102 C   0  0  0  0  0  0  0  0  0  0  0  0
   53.1815   68.2186   14.4354 N   0  0  0  0  0  0  0  0  0  0  0  0
   52.2287   67.2576   14.4218 C   0  0  0  0  0  0  0  0  0  0  0  0
   51.0123   67.7200   14.7774 N   0  0  0  0  0  0  0  0  0  0  0  0
   50.1232   67.1766   14.8183 H   0  0  0  0  0  0  0  0  0  0  0  0
 95 96  1  0  0  0
 96 91  1  0  0  0
 91 92  2  0  0  0
 91 93  1  0  0  0
 93 90  1  0  0  0
 90103  1  0  0  0
103104  1  0  0  0
104105  1  0  0  0
105106  2  0  0  0
105107  1  0  0  0
 90 86  1  0  0  0
 86 87  2  0  0  0
 86 88  1  0  0  0
 88 85  1  0  0  0
 85110  1  0  0  0
110111  1  0  0  0
111112  1  0  0  0
112113  2  0  0  0
112114  1  0  0  0
 85 81  1  0  0  0
 81 82  2  0  0  0
 81 83  1  0  0  0
 83 79  1  0  0  0
 79 80  1  0  0  0
 79 75  1  0  0  0
 75 76  2  0  0  0
 75 77  1  0  0  0
 77 74  1  0  0  0
 74117  1  0  0  0
117118  1  0  0  0
 74 70  1  0  0  0
 70 71  2  0  0  0
 70 72  1  0  0  0
 72 69  1  0  0  0
 69120  1  0  0  0
120121  1  0  0  0
121122  2  0  0  0
122123  1  0  0  0
123124  2  0  0  0
124125  1  0  0  0
 69 65  1  0  0  0
 65 66  2  0  0  0
 65 67  1  0  0  0
 67  1  1  0  0  0
  1  2  1  0  0  0
  2  3  2  0  0  0
  3  4  1  0  0  0
  4  5  2  0  0  0
  5  6  1  0  0  0
  5  7  1  0  0  0
  7  8  2  0  0  0
  1 10  1  0  0  0
 10 11  2  0  0  0
 10 12  1  0  0  0
 12 14  1  0  0  0
 14 58  1  0  0  0
 58 59  1  0  0  0
 59 60  1  0  0  0
 60 61  1  0  0  0
 61 62  1  0  0  0
 14 15  1  0  0  0
 15 16  2  0  0  0
 15 17  1  0  0  0
 17 19  1  0  0  0
 19 51  1  0  0  0
 51 52  1  0  0  0
 52 53  1  0  0  0
 53 54  2  0  0  0
 53 55  1  0  0  0
 19 20  1  0  0  0
 20 21  2  0  0  0
 20 22  1  0  0  0
 22 24  1  0  0  0
 24 44  1  0  0  0
 44 45  1  0  0  0
 45 46  2  0  0  0
 46 47  1  0  0  0
 47 48  2  0  0  0
 48 49  1  0  0  0
 24 25  1  0  0  0
 25 26  2  0  0  0
 25 27  1  0  0  0
 27 29  1  0  0  0
 29 41  1  0  0  0
 41 42  1  0  0  0
 29 30  1  0  0  0
 30 31  2  0  0  0
 30 32  1  0  0  0
 32 33  1  0  0  0
 33 34  1  0  0  0
 34 35  1  0  0  0
 35 36  1  0  0  0
 36 37  1  0  0  0
 37 38  1  0  0  0
 37 39  2  0  0  0
 96 99  1  0  0  0
 99100  1  0  0  0
 99101  1  0  0  0
125121  1  0  0  0
  8  2  1  0  0  0
 49 45  1  0  0  0
 36 32  1  0  0  0
 95 97  1  0  0  0
 95 98  1  0  0  0
 93 94  1  0  0  0
107108  1  0  0  0
107109  1  0  0  0
 88 89  1  0  0  0
114115  1  0  0  0
114116  1  0  0  0
 83 84  1  0  0  0
 77 78  1  0  0  0
118119  1  0  0  0
 72 73  1  0  0  0
125126  1  0  0  0
 67 68  1  0  0  0
  6  9  1  0  0  0
 12 13  1  0  0  0
 62 63  1  0  0  0
 62 64  1  0  0  0
 17 18  1  0  0  0
 55 56  1  0  0  0
 55 57  1  0  0  0
 22 23  1  0  0  0
 49 50  1  0  0  0
 27 28  1  0  0  0
 42 43  1  0  0  0
 38 40  1  0  0  0
100102  1  0  0  0
M  END
> <minimizedAffinity>
-5.54699

$$$$



126129  0  0  0  0  0  0  0  0999 V2000
   35.8737   89.1563   14.8417 C   0  0  0  0  0  0  0  0  0  0  0  0
   36.5830   88.1105   15.6706 C   0  0  0  0  0  0  0  0  0  0  0  0
   37.7211   88.4381   16.4294 C   0  0  0  0  0  0  0  0  0  0  0  0
   38.3383   87.4740   17.2299 C   0  0  0  0  0  0  0  0  0  0  0  0
   37.8407   86.1654   17.2687 C   0  0  0  0  0  0  0  0  0  0  0  0
   38.4621   85.2109   18.0731 O   0  0  0  0  0  0  0  0  0  0  0  0
   36.7181   85.8267   16.5039 C   0  0  0  0  0  0  0  0  0  0  0  0
   36.0886   86.7972   15.7175 C   0  0  0  0  0  0  0  0  0  0  0  0
   38.1475   84.2477   18.0832 H   0  0  0  0  0  0  0  0  0  0  0  0
   34.9841   90.0094   15.7076 C   0  0  0  0  0  0  0  0  0  0  0  0
   35.3333   91.1754   16.0299 O   0  0  0  0  0  0  0  0  0  0  0  0
   33.7495   89.4754   16.2050 N   0  0  0  0  0  0  0  0  0  0  0  0
   33.1723   88.9198   15.5323 H   0  0  0  0  0  0  0  0  0  0  0  0
   33.4261   89.3203   17.6328 C   0  0  0  0  0  0  0  0  0  0  0  0
   32.7957   90.5966   18.1378 C   0  0  0  0  0  0  0  0  0  0  0  0
   33.1873   91.1211   19.2195 O   0  0  0  0  0  0  0  0  0  0  0  0
   31.7367   91.2062   17.3866 N   0  0  0  0  0  0  0  0  0  0  0  0
   31.5800   90.8794   16.4057 H   0  0  0  0  0  0  0  0  0  0  0  0
   30.6591   91.9568   18.0414 C   0  0  0  0  0  0  0  0  0  0  0  0
   31.0099   93.4246   18.0830 C   0  0  0  0  0  0  0  0  0  0  0  0
   31.4470   93.9270   19.1521 O   0  0  0  0  0  0  0  0  0  0  0  0
   30.9099   94.2308   16.8947 N   0  0  0  0  0  0  0  0  0  0  0  0
   30.6131   93.7492   16.0128 H   0  0  0  0  0  0  0  0  0  0  0  0
   31.4768   95.5880   16.8246 C   0  0  0  0  0  0  0  0  0  0  0  0
   30.4983   96.5791   16.2272 C   0  0  0  0  0  0  0  0  0  0  0  0
   29.4133   96.1595   15.7401 O   0  0  0  0  0  0  0  0  0  0  0  0
   30.8264   97.9727   16.0672 N   0  0  0  0  0  0  0  0  0  0  0  0
   30.5079   98.4188   15.1743 H   0  0  0  0  0  0  0  0  0  0  0  0
   31.2497   98.8926   17.1388 C   0  0  0  0  0  0  0  0  0  0  0  0
   32.5500   99.5847   16.7969 C   0  0  0  0  0  0  0  0  0  0  0  0
   33.6038   98.9134   16.6693 O   0  0  0  0  0  0  0  0  0  0  0  0
   32.6368  101.0151   16.7400 N   0  0  0  0  0  0  0  0  0  0  0  0
   32.4887  101.7644   15.5045 C   0  0  0  0  0  0  0  0  0  0  0  0
   33.0827  103.1372   15.7836 C   0  0  0  0  0  0  0  0  0  0  0  0
   33.1275  103.2629   17.3049 C   0  0  0  0  0  0  0  0  0  0  0  0
   33.1444  101.8289   17.8371 C   0  0  0  0  0  0  0  0  0  0  0  0
   34.5363  101.4091   18.2230 C   0  0  0  0  0  0  0  0  0  0  0  0
   35.5097  101.2751   17.2433 O   0  0  0  0  0  0  0  0  0  0  0  0
   34.8107  101.1491   19.4253 O   0  0  0  0  0  0  0  0  0  0  0  0
   36.4488  100.9791   17.4802 H   0  0  0  0  0  0  0  0  0  0  0  0
   30.1210   99.8776   17.5060 C   0  0  0  0  0  0  0  0  0  0  0  0
   28.9751  100.1572   16.1135 S   0  0  0  0  0  0  0  0  0  0  0  0
   28.6138   98.8097   15.9676 H   0  0  0  0  0  0  0  0  0  0  0  0
   32.7953   95.5616   16.0216 C   0  0  0  0  0  0  0  0  0  0  0  0
   33.9854   95.2000   16.8727 C   0  0  0  0  0  0  0  0  0  0  0  0
   34.4280   95.8708   17.9899 C   0  0  0  0  0  0  0  0  0  0  0  0
   35.5393   95.2689   18.4560 N   0  0  0  0  0  0  0  0  0  0  0  0
   35.7520   94.2481   17.5982 C   0  0  0  0  0  0  0  0  0  0  0  0
   34.8250   94.1791   16.6255 N   0  0  0  0  0  0  0  0  0  0  0  0
   34.7959   93.5075   15.8264 H   0  0  0  0  0  0  0  0  0  0  0  0
   29.3332   91.7552   17.2774 C   0  0  0  0  0  0  0  0  0  0  0  0
   28.1012   91.9733   18.1724 C   0  0  0  0  0  0  0  0  0  0  0  0
   27.1733   92.9980   17.5807 C   0  0  0  0  0  0  0  0  0  0  0  0
   26.0465   93.2019   18.1064 O   0  0  0  0  0  0  0  0  0  0  0  0
   27.5564   93.7369   16.4191 N   0  0  0  0  0  0  0  0  0  0  0  0
   26.9296   94.4789   16.0353 H   0  0  0  0  0  0  0  0  0  0  0  0
   28.4570   93.5433   15.9289 H   0  0  0  0  0  0  0  0  0  0  0  0
   34.6364   88.8745   18.4924 C   0  0  0  0  0  0  0  0  0  0  0  0
   34.4840   87.4395   19.0253 C   0  0  0  0  0  0  0  0  0  0  0  0
   33.1332   86.8009   18.6546 C   0  0  0  0  0  0  0  0  0  0  0  0
   32.0721   86.8265   19.7746 C   0  0  0  0  0  0  0  0  0  0  0  0
   30.7202   87.0673   19.2642 N   0  0  0  0  0  0  0  0  0  0  0  0
   30.3988   86.2173   18.7427 H   0  0  0  0  0  0  0  0  0  0  0  0
   30.7437   87.8639   18.5949 H   0  0  0  0  0  0  0  0  0  0  0  0
   36.5029   90.5473   12.8476 C   0  0  0  0  0  0  0  0  0  0  0  0
   35.9784   89.8287   11.9554 O   0  0  0  0  0  0  0  0  0  0  0  0
   36.8456   89.9780   14.1137 N   0  0  0  0  0  0  0  0  0  0  0  0
   37.7217   90.2964   14.5897 H   0  0  0  0  0  0  0  0  0  0  0  0
   36.5727   92.0359   12.6701 C   0  0  0  0  0  0  0  0  0  0  0  0
   37.7946   93.5759   14.2916 C   0  0  0  0  0  0  0  0  0  0  0  0
   38.3248   93.5462   15.4402 O   0  0  0  0  0  0  0  0  0  0  0  0
   36.7407   92.6447   13.9923 N   0  0  0  0  0  0  0  0  0  0  0  0
   36.3072   92.1605   14.8079 H   0  0  0  0  0  0  0  0  0  0  0  0
   38.1996   94.6427   13.2964 C   0  0  0  0  0  0  0  0  0  0  0  0
   40.2705   95.4836   12.1033 C   0  0  0  0  0  0  0  0  0  0  0  0
   39.6453   95.5729   11.0106 O   0  0  0  0  0  0  0  0  0  0  0  0
   39.6575   94.8161   13.2187 N   0  0  0  0  0  0  0  0  0  0  0  0
   40.2763   94.4979   13.9954 H   0  0  0  0  0  0  0  0  0  0  0  0
   41.6457   96.0881   12.2599 C   0  0  0  0  0  0  0  0  0  0  0  0
   42.3223   95.4988   13.4970 C   0  0  0  0  0  0  0  0  0  0  0  0
   42.5407   98.4088   11.6772 C   0  0  0  0  0  0  0  0  0  0  0  0
   43.5408   97.9115   11.0920 O   0  0  0  0  0  0  0  0  0  0  0  0
   41.6016   97.5575   12.3568 N   0  0  0  0  0  0  0  0  0  0  0  0
   40.8464   98.0310   12.8966 H   0  0  0  0  0  0  0  0  0  0  0  0
   42.3386   99.9039   11.6597 C   0  0  0  0  0  0  0  0  0  0  0  0
   40.4935  101.4301   12.4976 C   0  0  0  0  0  0  0  0  0  0  0  0
   39.8633  102.2804   11.8089 O   0  0  0  0  0  0  0  0  0  0  0  0
   40.9212  100.2154   11.8704 N   0  0  0  0  0  0  0  0  0  0  0  0
   40.2426   99.7880   11.2082 H   0  0  0  0  0  0  0  0  0  0  0  0
   40.6258  101.6668   13.9929 C   0  0  0  0  0  0  0  0  0  0  0  0
   41.8938  103.7212   14.6917 C   0  0  0  0  0  0  0  0  0  0  0  0
   41.1230  104.1416   15.5982 O   0  0  0  0  0  0  0  0  0  0  0  0
   41.8820  102.3325   14.3448 N   0  0  0  0  0  0  0  0  0  0  0  0
   42.7768  101.7998   14.3901 H   0  0  0  0  0  0  0  0  0  0  0  0
   43.8435  105.1956   14.7615 N   0  0  0  0  0  0  0  0  0  0  0  0
   42.7558  104.6917   13.9122 C   0  0  0  0  0  0  0  0  0  0  0  0
   44.3408  105.9567   14.2422 H   0  0  0  0  0  0  0  0  0  0  0  0
   43.4239  105.6535   15.6018 H   0  0  0  0  0  0  0  0  0  0  0  0
   43.3014  104.0568   12.6137 C   0  0  0  0  0  0  0  0  0  0  0  0
   42.3362  104.2021   11.5976 O   0  0  0  0  0  0  0  0  0  0  0  0
   44.6210  104.6933   12.1551 C   0  0  0  0  0  0  0  0  0  0  0  0
   42.5896  103.5791   10.8696 H   0  0  0  0  0  0  0  0  0  0  0  0
   40.4542  100.3609   14.7882 C   0  0  0  0  0  0  0  0  0  0  0  0
   39.1674  100.3058   15.6308 C   0  0  0  0  0  0  0  0  0  0  0  0
   38.9348  101.5798   16.4033 C   0  0  0  0  0  0  0  0  0  0  0  0
   37.9511  102.3243   16.1533 O   0  0  0  0  0  0  0  0  0  0  0  0
   39.8349  101.9441   17.4480 N   0  0  0  0  0  0  0  0  0  0  0  0
   39.6749  102.8123   18.0017 H   0  0  0  0  0  0  0  0  0  0  0  0
   40.6363  101.3210   17.7031 H   0  0  0  0  0  0  0  0  0  0  0  0
   42.8944  100.6348   10.4006 C   0  0  0  0  0  0  0  0  0  0  0  0
   44.3338  101.1871   10.4656 C   0  0  0  0  0  0  0  0  0  0  0  0
   45.3527  100.5315    9.5617 C   0  0  0  0  0  0  0  0  0  0  0  0
   46.4500  101.1159    9.3788 O   0  0  0  0  0  0  0  0  0  0  0  0
   45.1076   99.3021    8.8706 N   0  0  0  0  0  0  0  0  0  0  0  0
   44.1677   98.8573    8.8285 H   0  0  0  0  0  0  0  0  0  0  0  0
   45.8638   98.8784    8.2825 H   0  0  0  0  0  0  0  0  0  0  0  0
   37.5133   95.9732   13.6697 C   0  0  0  0  0  0  0  0  0  0  0  0
   36.2283   95.7454   14.1922 O   0  0  0  0  0  0  0  0  0  0  0  0
   36.3436   95.5986   15.1703 H   0  0  0  0  0  0  0  0  0  0  0  0
   35.3212   92.5902   11.9647 C   0  0  0  0  0  0  0  0  0  0  0  0
   35.6845   93.7462   11.0763 C   0  0  0  0  0  0  0  0  0  0  0  0
   36.5353   93.6998    9.9873 C   0  0  0  0  0  0  0  0  0  0  0  0
   36.6671   94.9425    9.4788 N   0  0  0  0  0  0  0  0  0  0  0  0
   35.8893   95.7142   10.2732 C   0  0  0  0  0  0  0  0  0  0  0  0
   35.2735   95.0115   11.2465 N   0  0  0  0  0  0  0  0  0  0  0  0
   34.6465   95.3882   11.9897 H   0  0  0  0  0  0  0  0  0  0  0  0
 95 96  1  0  0  0
 96 91  1  0  0  0
 91 92  2  0  0  0
 91 93  1  0  0  0
 93 90  1  0  0  0
 90103  1  0  0  0
103104  1  0  0  0
104105  1  0  0  0
105106  2  0  0  0
105107  1  0  0  0
 90 86  1  0  0  0
 86 87  2  0  0  0
 86 88  1  0  0  0
 88 85  1  0  0  0
 85110  1  0  0  0
110111  1  0  0  0
111112  1  0  0  0
112113  2  0  0  0
112114  1  0  0  0
 85 81  1  0  0  0
 81 82  2  0  0  0
 81 83  1  0  0  0
 83 79  1  0  0  0
 79 80  1  0  0  0
 79 75  1  0  0  0
 75 76  2  0  0  0
 75 77  1  0  0  0
 77 74  1  0  0  0
 74117  1  0  0  0
117118  1  0  0  0
 74 70  1  0  0  0
 70 71  2  0  0  0
 70 72  1  0  0  0
 72 69  1  0  0  0
 69120  1  0  0  0
120121  1  0  0  0
121122  2  0  0  0
122123  1  0  0  0
123124  2  0  0  0
124125  1  0  0  0
 69 65  1  0  0  0
 65 66  2  0  0  0
 65 67  1  0  0  0
 67  1  1  0  0  0
  1  2  1  0  0  0
  2  3  2  0  0  0
  3  4  1  0  0  0
  4  5  2  0  0  0
  5  6  1  0  0  0
  5  7  1  0  0  0
  7  8  2  0  0  0
  1 10  1  0  0  0
 10 11  2  0  0  0
 10 12  1  0  0  0
 12 14  1  0  0  0
 14 58  1  0  0  0
 58 59  1  0  0  0
 59 60  1  0  0  0
 60 61  1  0  0  0
 61 62  1  0  0  0
 14 15  1  0  0  0
 15 16  2  0  0  0
 15 17  1  0  0  0
 17 19  1  0  0  0
 19 51  1  0  0  0
 51 52  1  0  0  0
 52 53  1  0  0  0
 53 54  2  0  0  0
 53 55  1  0  0  0
 19 20  1  0  0  0
 20 21  2  0  0  0
 20 22  1  0  0  0
 22 24  1  0  0  0
 24 44  1  0  0  0
 44 45  1  0  0  0
 45 46  2  0  0  0
 46 47  1  0  0  0
 47 48  2  0  0  0
 48 49  1  0  0  0
 24 25  1  0  0  0
 25 26  2  0  0  0
 25 27  1  0  0  0
 27 29  1  0  0  0
 29 41  1  0  0  0
 41 42  1  0  0  0
 29 30  1  0  0  0
 30 31  2  0  0  0
 30 32  1  0  0  0
 32 33  1  0  0  0
 33 34  1  0  0  0
 34 35  1  0  0  0
 35 36  1  0  0  0
 36 37  1  0  0  0
 37 38  1  0  0  0
 37 39  2  0  0  0
 96 99  1  0  0  0
 99100  1  0  0  0
 99101  1  0  0  0
125121  1  0  0  0
  8  2  1  0  0  0
 49 45  1  0  0  0
 36 32  1  0  0  0
 95 97  1  0  0  0
 95 98  1  0  0  0
 93 94  1  0  0  0
107108  1  0  0  0
107109  1  0  0  0
 88 89  1  0  0  0
114115  1  0  0  0
114116  1  0  0  0
 83 84  1  0  0  0
 77 78  1  0  0  0
118119  1  0  0  0
 72 73  1  0  0  0
125126  1  0  0  0
 67 68  1  0  0  0
  6  9  1  0  0  0
 12 13  1  0  0  0
 62 63  1  0  0  0
 62 64  1  0  0  0
 17 18  1  0  0  0
 55 56  1  0  0  0
 55 57  1  0  0  0
 22 23  1  0  0  0
 49 50  1  0  0  0
 27 28  1  0  0  0
 42 43  1  0  0  0
 38 40  1  0  0  0
100102  1  0  0  0
M  END
> <minimizedAffinity>
-5.49776

$$$$



126129  0  0  0  0  0  0  0  0999 V2000
   45.5028   63.8709   10.1496 C   0  0  0  0  0  0  0  0  0  0  0  0
   44.9592   65.0127   10.9770 C   0  0  0  0  0  0  0  0  0  0  0  0
   44.8790   66.3143   10.4498 C   0  0  0  0  0  0  0  0  0  0  0  0
   44.3290   67.3510   11.2075 C   0  0  0  0  0  0  0  0  0  0  0  0
   43.8702   67.1077   12.5082 C   0  0  0  0  0  0  0  0  0  0  0  0
   43.3202   68.1485   13.2554 O   0  0  0  0  0  0  0  0  0  0  0  0
   43.9613   65.8186   13.0466 C   0  0  0  0  0  0  0  0  0  0  0  0
   44.4942   64.7766   12.2805 C   0  0  0  0  0  0  0  0  0  0  0  0
   43.0228   68.0066   14.2137 H   0  0  0  0  0  0  0  0  0  0  0  0
   46.9273   63.5658   10.5331 C   0  0  0  0  0  0  0  0  0  0  0  0
   47.1909   62.6005   11.2974 O   0  0  0  0  0  0  0  0  0  0  0  0
   47.9884   64.4063   10.0594 N   0  0  0  0  0  0  0  0  0  0  0  0
   47.9407   64.7048    9.0579 H   0  0  0  0  0  0  0  0  0  0  0  0
   48.8948   65.1717   10.9312 C   0  0  0  0  0  0  0  0  0  0  0  0
   49.5024   66.3047   10.1384 C   0  0  0  0  0  0  0  0  0  0  0  0
   49.8268   67.3852   10.7091 O   0  0  0  0  0  0  0  0  0  0  0  0
   49.6986   66.1521    8.7257 N   0  0  0  0  0  0  0  0  0  0  0  0
   49.6246   65.1906    8.3213 H   0  0  0  0  0  0  0  0  0  0  0  0
   49.6115   67.2929    7.8069 C   0  0  0  0  0  0  0  0  0  0  0  0
   48.3899   68.1189    8.1309 C   0  0  0  0  0  0  0  0  0  0  0  0
   47.2565   67.5698    8.1443 O   0  0  0  0  0  0  0  0  0  0  0  0
   48.5237   69.5072    8.4871 N   0  0  0  0  0  0  0  0  0  0  0  0
   49.4946   69.8980    8.5346 H   0  0  0  0  0  0  0  0  0  0  0  0
   47.4032   70.2774    9.0523 C   0  0  0  0  0  0  0  0  0  0  0  0
   46.8780   71.3105    8.0758 C   0  0  0  0  0  0  0  0  0  0  0  0
   45.6474   71.3311    7.8001 O   0  0  0  0  0  0  0  0  0  0  0  0
   47.7584   72.1817    7.3403 N   0  0  0  0  0  0  0  0  0  0  0  0
   47.5036   72.3509    6.3383 H   0  0  0  0  0  0  0  0  0  0  0  0
   48.7547   73.0999    7.9219 C   0  0  0  0  0  0  0  0  0  0  0  0
   50.1663   72.6782    7.5809 C   0  0  0  0  0  0  0  0  0  0  0  0
   50.6860   71.6949    8.1643 O   0  0  0  0  0  0  0  0  0  0  0  0
   50.9795   73.4571    6.6928 N   0  0  0  0  0  0  0  0  0  0  0  0
   51.0828   73.1780    5.2710 C   0  0  0  0  0  0  0  0  0  0  0  0
   52.3376   73.8994    4.8015 C   0  0  0  0  0  0  0  0  0  0  0  0
   52.6424   74.9362    5.8806 C   0  0  0  0  0  0  0  0  0  0  0  0
   51.9776   74.4130    7.1550 C   0  0  0  0  0  0  0  0  0  0  0  0
   52.9815   73.7519    8.0593 C   0  0  0  0  0  0  0  0  0  0  0  0
   53.5920   72.5713    7.6610 O   0  0  0  0  0  0  0  0  0  0  0  0
   53.2445   74.2493    9.1871 O   0  0  0  0  0  0  0  0  0  0  0  0
   54.2593   72.1025    8.2614 H   0  0  0  0  0  0  0  0  0  0  0  0
   48.4538   74.5635    7.5395 C   0  0  0  0  0  0  0  0  0  0  0  0
   48.8290   75.7190    8.9014 S   0  0  0  0  0  0  0  0  0  0  0  0
   50.1807   75.3604    9.0097 H   0  0  0  0  0  0  0  0  0  0  0  0
   47.8416   70.9413   10.3755 C   0  0  0  0  0  0  0  0  0  0  0  0
   47.2962   70.2324   11.5885 C   0  0  0  0  0  0  0  0  0  0  0  0
   46.2062   70.6115   12.3382 C   0  0  0  0  0  0  0  0  0  0  0  0
   46.0520   69.7499   13.3621 N   0  0  0  0  0  0  0  0  0  0  0  0
   47.0656   68.8699   13.2146 C   0  0  0  0  0  0  0  0  0  0  0  0
   47.8389   69.1356   12.1462 N   0  0  0  0  0  0  0  0  0  0  0  0
   48.7008   68.6273   11.8474 H   0  0  0  0  0  0  0  0  0  0  0  0
   50.8803   68.1642    7.9223 C   0  0  0  0  0  0  0  0  0  0  0  0
   51.9358   67.8072    6.8618 C   0  0  0  0  0  0  0  0  0  0  0  0
   51.6506   68.4971    5.5565 C   0  0  0  0  0  0  0  0  0  0  0  0
   51.0538   69.6068    5.5506 O   0  0  0  0  0  0  0  0  0  0  0  0
   52.0435   67.8982    4.3199 N   0  0  0  0  0  0  0  0  0  0  0  0
   51.8842   68.3988    3.4172 H   0  0  0  0  0  0  0  0  0  0  0  0
   52.4831   66.9522    4.2938 H   0  0  0  0  0  0  0  0  0  0  0  0
   49.9646   64.2932   11.6284 C   0  0  0  0  0  0  0  0  0  0  0  0
   50.7827   63.4571   10.6293 C   0  0  0  0  0  0  0  0  0  0  0  0
   50.5668   61.9419   10.7950 C   0  0  0  0  0  0  0  0  0  0  0  0
   50.0982   61.2082    9.5209 C   0  0  0  0  0  0  0  0  0  0  0  0
   48.7860   60.5777    9.6845 N   0  0  0  0  0  0  0  0  0  0  0  0
   48.0541   61.3260    9.7305 H   0  0  0  0  0  0  0  0  0  0  0  0
   48.7670   60.0552   10.5843 H   0  0  0  0  0  0  0  0  0  0  0  0
   44.7356   61.6200    9.3424 C   0  0  0  0  0  0  0  0  0  0  0  0
   44.7041   61.8734    8.1087 O   0  0  0  0  0  0  0  0  0  0  0  0
   44.6528   62.6849   10.2929 N   0  0  0  0  0  0  0  0  0  0  0  0
   44.1142   62.5314   11.1772 H   0  0  0  0  0  0  0  0  0  0  0  0
   45.0739   60.2374    9.8180 C   0  0  0  0  0  0  0  0  0  0  0  0
   45.0804   58.8978    7.6502 C   0  0  0  0  0  0  0  0  0  0  0  0
   44.3399   58.6754    6.6484 O   0  0  0  0  0  0  0  0  0  0  0  0
   44.4660   59.2766    8.8937 N   0  0  0  0  0  0  0  0  0  0  0  0
   43.4386   59.1143    8.9692 H   0  0  0  0  0  0  0  0  0  0  0  0
   46.5738   58.6661    7.5560 C   0  0  0  0  0  0  0  0  0  0  0  0
   48.0930   59.7478    5.8410 C   0  0  0  0  0  0  0  0  0  0  0  0
   48.2815   60.7467    6.5890 O   0  0  0  0  0  0  0  0  0  0  0  0
   47.0771   58.7894    6.1801 N   0  0  0  0  0  0  0  0  0  0  0  0
   46.7396   58.1510    5.4278 H   0  0  0  0  0  0  0  0  0  0  0  0
   48.9359   59.5355    4.6059 C   0  0  0  0  0  0  0  0  0  0  0  0
   49.4933   60.8779    4.1339 C   0  0  0  0  0  0  0  0  0  0  0  0
   48.7396   57.8512    2.6953 C   0  0  0  0  0  0  0  0  0  0  0  0
   49.9648   57.5650    2.7787 O   0  0  0  0  0  0  0  0  0  0  0  0
   48.1803   58.8890    3.5189 N   0  0  0  0  0  0  0  0  0  0  0  0
   47.1848   59.1413    3.3421 H   0  0  0  0  0  0  0  0  0  0  0  0
   47.8663   57.0970    1.7231 C   0  0  0  0  0  0  0  0  0  0  0  0
   46.6955   56.1305    3.7557 C   0  0  0  0  0  0  0  0  0  0  0  0
   46.1015   56.7901    4.6538 O   0  0  0  0  0  0  0  0  0  0  0  0
   46.6624   56.6156    2.4083 N   0  0  0  0  0  0  0  0  0  0  0  0
   45.7532   57.0120    2.0952 H   0  0  0  0  0  0  0  0  0  0  0  0
   47.2779   54.7752    4.1208 C   0  0  0  0  0  0  0  0  0  0  0  0
   45.3140   53.3831    3.3982 C   0  0  0  0  0  0  0  0  0  0  0  0
   45.7473   52.9763    2.2850 O   0  0  0  0  0  0  0  0  0  0  0  0
   46.2421   53.7817    4.4126 N   0  0  0  0  0  0  0  0  0  0  0  0
   46.1902   53.3191    5.3452 H   0  0  0  0  0  0  0  0  0  0  0  0
   43.5257   53.4691    5.0638 N   0  0  0  0  0  0  0  0  0  0  0  0
   43.8254   53.5382    3.6272 C   0  0  0  0  0  0  0  0  0  0  0  0
   42.4856   53.4477    5.1822 H   0  0  0  0  0  0  0  0  0  0  0  0
   43.8714   52.5542    5.4316 H   0  0  0  0  0  0  0  0  0  0  0  0
   43.2827   54.8413    2.9995 C   0  0  0  0  0  0  0  0  0  0  0  0
   43.9787   55.0911    1.8002 O   0  0  0  0  0  0  0  0  0  0  0  0
   41.7770   54.7731    2.7077 C   0  0  0  0  0  0  0  0  0  0  0  0
   43.8025   56.0357    1.5572 H   0  0  0  0  0  0  0  0  0  0  0  0
   48.2772   54.8857    5.2855 C   0  0  0  0  0  0  0  0  0  0  0  0
   47.9173   54.0162    6.5035 C   0  0  0  0  0  0  0  0  0  0  0  0
   48.8962   54.1878    7.6376 C   0  0  0  0  0  0  0  0  0  0  0  0
   50.1363   54.2381    7.4275 O   0  0  0  0  0  0  0  0  0  0  0  0
   48.4116   54.3115    8.9734 N   0  0  0  0  0  0  0  0  0  0  0  0
   49.0765   54.4492    9.7638 H   0  0  0  0  0  0  0  0  0  0  0  0
   47.3835   54.3150    9.1697 H   0  0  0  0  0  0  0  0  0  0  0  0
   48.5741   55.9430    0.9513 C   0  0  0  0  0  0  0  0  0  0  0  0
   49.2035   56.2730   -0.4183 C   0  0  0  0  0  0  0  0  0  0  0  0
   50.6938   56.5253   -0.4362 C   0  0  0  0  0  0  0  0  0  0  0  0
   51.4552   55.5744   -0.7447 O   0  0  0  0  0  0  0  0  0  0  0  0
   51.2779   57.7811   -0.0744 N   0  0  0  0  0  0  0  0  0  0  0  0
   50.7313   58.5518    0.3618 H   0  0  0  0  0  0  0  0  0  0  0  0
   52.3160   57.9071   -0.1368 H   0  0  0  0  0  0  0  0  0  0  0  0
   46.9104   57.2763    8.1353 C   0  0  0  0  0  0  0  0  0  0  0  0
   46.8851   57.2992    9.5406 O   0  0  0  0  0  0  0  0  0  0  0  0
   45.9434   57.1176    9.8087 H   0  0  0  0  0  0  0  0  0  0  0  0
   44.5940   59.9918   11.2604 C   0  0  0  0  0  0  0  0  0  0  0  0
   45.6645   59.3092   12.0639 C   0  0  0  0  0  0  0  0  0  0  0  0
   45.4603   58.4414   13.1209 C   0  0  0  0  0  0  0  0  0  0  0  0
   46.6559   58.0823   13.6324 N   0  0  0  0  0  0  0  0  0  0  0  0
   47.5588   58.7417   12.8699 C   0  0  0  0  0  0  0  0  0  0  0  0
   46.9842   59.4875   11.9036 N   0  0  0  0  0  0  0  0  0  0  0  0
   47.4700   60.0982   11.2119 H   0  0  0  0  0  0  0  0  0  0  0  0
 95 96  1  0  0  0
 96 91  1  0  0  0
 91 92  2  0  0  0
 91 93  1  0  0  0
 93 90  1  0  0  0
 90103  1  0  0  0
103104  1  0  0  0
104105  1  0  0  0
105106  2  0  0  0
105107  1  0  0  0
 90 86  1  0  0  0
 86 87  2  0  0  0
 86 88  1  0  0  0
 88 85  1  0  0  0
 85110  1  0  0  0
110111  1  0  0  0
111112  1  0  0  0
112113  2  0  0  0
112114  1  0  0  0
 85 81  1  0  0  0
 81 82  2  0  0  0
 81 83  1  0  0  0
 83 79  1  0  0  0
 79 80  1  0  0  0
 79 75  1  0  0  0
 75 76  2  0  0  0
 75 77  1  0  0  0
 77 74  1  0  0  0
 74117  1  0  0  0
117118  1  0  0  0
 74 70  1  0  0  0
 70 71  2  0  0  0
 70 72  1  0  0  0
 72 69  1  0  0  0
 69120  1  0  0  0
120121  1  0  0  0
121122  2  0  0  0
122123  1  0  0  0
123124  2  0  0  0
124125  1  0  0  0
 69 65  1  0  0  0
 65 66  2  0  0  0
 65 67  1  0  0  0
 67  1  1  0  0  0
  1  2  1  0  0  0
  2  3  2  0  0  0
  3  4  1  0  0  0
  4  5  2  0  0  0
  5  6  1  0  0  0
  5  7  1  0  0  0
  7  8  2  0  0  0
  1 10  1  0  0  0
 10 11  2  0  0  0
 10 12  1  0  0  0
 12 14  1  0  0  0
 14 58  1  0  0  0
 58 59  1  0  0  0
 59 60  1  0  0  0
 60 61  1  0  0  0
 61 62  1  0  0  0
 14 15  1  0  0  0
 15 16  2  0  0  0
 15 17  1  0  0  0
 17 19  1  0  0  0
 19 51  1  0  0  0
 51 52  1  0  0  0
 52 53  1  0  0  0
 53 54  2  0  0  0
 53 55  1  0  0  0
 19 20  1  0  0  0
 20 21  2  0  0  0
 20 22  1  0  0  0
 22 24  1  0  0  0
 24 44  1  0  0  0
 44 45  1  0  0  0
 45 46  2  0  0  0
 46 47  1  0  0  0
 47 48  2  0  0  0
 48 49  1  0  0  0
 24 25  1  0  0  0
 25 26  2  0  0  0
 25 27  1  0  0  0
 27 29  1  0  0  0
 29 41  1  0  0  0
 41 42  1  0  0  0
 29 30  1  0  0  0
 30 31  2  0  0  0
 30 32  1  0  0  0
 32 33  1  0  0  0
 33 34  1  0  0  0
 34 35  1  0  0  0
 35 36  1  0  0  0
 36 37  1  0  0  0
 37 38  1  0  0  0
 37 39  2  0  0  0
 96 99  1  0  0  0
 99100  1  0  0  0
 99101  1  0  0  0
125121  1  0  0  0
  8  2  1  0  0  0
 49 45  1  0  0  0
 36 32  1  0  0  0
 95 97  1  0  0  0
 95 98  1  0  0  0
 93 94  1  0  0  0
107108  1  0  0  0
107109  1  0  0  0
 88 89  1  0  0  0
114115  1  0  0  0
114116  1  0  0  0
 83 84  1  0  0  0
 77 78  1  0  0  0
118119  1  0  0  0
 72 73  1  0  0  0
125126  1  0  0  0
 67 68  1  0  0  0
  6  9  1  0  0  0
 12 13  1  0  0  0
 62 63  1  0  0  0
 62 64  1  0  0  0
 17 18  1  0  0  0
 55 56  1  0  0  0
 55 57  1  0  0  0
 22 23  1  0  0  0
 49 50  1  0  0  0
 27 28  1  0  0  0
 42 43  1  0  0  0
 38 40  1  0  0  0
100102  1  0  0  0
M  END
> <minimizedAffinity>
-5.46503

$$$$



126129  0  0  0  0  0  0  0  0999 V2000
   19.8736   62.1725   -0.7468 C   0  0  0  0  0  0  0  0  0  0  0  0
   19.2328   61.6399    0.5140 C   0  0  0  0  0  0  0  0  0  0  0  0
   19.9768   60.8899    1.4426 C   0  0  0  0  0  0  0  0  0  0  0  0
   19.3856   60.4454    2.6276 C   0  0  0  0  0  0  0  0  0  0  0  0
   18.0392   60.7257    2.8928 C   0  0  0  0  0  0  0  0  0  0  0  0
   17.4589   60.2800    4.0798 O   0  0  0  0  0  0  0  0  0  0  0  0
   17.2871   61.4576    1.9662 C   0  0  0  0  0  0  0  0  0  0  0  0
   17.8847   61.9193    0.7888 C   0  0  0  0  0  0  0  0  0  0  0  0
   16.4759   60.4321    4.2730 H   0  0  0  0  0  0  0  0  0  0  0  0
   19.3660   61.4321   -1.9565 C   0  0  0  0  0  0  0  0  0  0  0  0
   19.8316   60.3012   -2.2559 O   0  0  0  0  0  0  0  0  0  0  0  0
   18.3758   62.0376   -2.7988 N   0  0  0  0  0  0  0  0  0  0  0  0
   17.5863   62.5283   -2.3189 H   0  0  0  0  0  0  0  0  0  0  0  0
   18.5747   62.3496   -4.2238 C   0  0  0  0  0  0  0  0  0  0  0  0
   19.2140   63.7126   -4.3461 C   0  0  0  0  0  0  0  0  0  0  0  0
   20.2049   64.0234   -3.6249 O   0  0  0  0  0  0  0  0  0  0  0  0
   18.6805   64.6614   -5.2802 N   0  0  0  0  0  0  0  0  0  0  0  0
   18.0107   64.3136   -6.0041 H   0  0  0  0  0  0  0  0  0  0  0  0
   18.7283   66.1057   -5.0255 C   0  0  0  0  0  0  0  0  0  0  0  0
   20.0330   66.6719   -5.5319 C   0  0  0  0  0  0  0  0  0  0  0  0
   20.2657   67.9029   -5.4029 O   0  0  0  0  0  0  0  0  0  0  0  0
   21.0324   65.8037   -6.0975 N   0  0  0  0  0  0  0  0  0  0  0  0
   20.8215   64.7776   -6.1138 H   0  0  0  0  0  0  0  0  0  0  0  0
   22.4040   66.2669   -6.3665 C   0  0  0  0  0  0  0  0  0  0  0  0
   22.6616   66.4392   -7.8499 C   0  0  0  0  0  0  0  0  0  0  0  0
   22.7624   65.4175   -8.5825 O   0  0  0  0  0  0  0  0  0  0  0  0
   22.9376   67.7279   -8.4315 N   0  0  0  0  0  0  0  0  0  0  0  0
   23.6831   67.7485   -9.1672 H   0  0  0  0  0  0  0  0  0  0  0  0
   22.0746   68.9204   -8.3467 C   0  0  0  0  0  0  0  0  0  0  0  0
   22.6189   69.9327   -7.3641 C   0  0  0  0  0  0  0  0  0  0  0  0
   23.2240   69.5452   -6.3340 O   0  0  0  0  0  0  0  0  0  0  0  0
   22.3479   71.3330   -7.5144 N   0  0  0  0  0  0  0  0  0  0  0  0
   23.2554   72.2423   -8.1923 C   0  0  0  0  0  0  0  0  0  0  0  0
   22.8452   73.6385   -7.7475 C   0  0  0  0  0  0  0  0  0  0  0  0
   21.4290   73.4931   -7.1949 C   0  0  0  0  0  0  0  0  0  0  0  0
   21.2956   72.0262   -6.7825 C   0  0  0  0  0  0  0  0  0  0  0  0
   21.4707   71.8613   -5.2977 C   0  0  0  0  0  0  0  0  0  0  0  0
   22.6431   72.2907   -4.6925 O   0  0  0  0  0  0  0  0  0  0  0  0
   20.5715   71.3072   -4.6100 O   0  0  0  0  0  0  0  0  0  0  0  0
   22.7869   72.1753   -3.6967 H   0  0  0  0  0  0  0  0  0  0  0  0
   21.8109   69.5180   -9.7440 C   0  0  0  0  0  0  0  0  0  0  0  0
   20.0331   69.7995  -10.0450 S   0  0  0  0  0  0  0  0  0  0  0  0
   19.8475   70.6538   -8.9482 H   0  0  0  0  0  0  0  0  0  0  0  0
   23.4181   65.2854   -5.7404 C   0  0  0  0  0  0  0  0  0  0  0  0
   24.3991   65.9710   -4.8245 C   0  0  0  0  0  0  0  0  0  0  0  0
   25.4214   65.3732   -4.1235 C   0  0  0  0  0  0  0  0  0  0  0  0
   26.0569   66.3050   -3.3869 N   0  0  0  0  0  0  0  0  0  0  0  0
   25.3933   67.4508   -3.6517 C   0  0  0  0  0  0  0  0  0  0  0  0
   24.3812   67.2812   -4.5217 N   0  0  0  0  0  0  0  0  0  0  0  0
   23.7015   68.0030   -4.8495 H   0  0  0  0  0  0  0  0  0  0  0  0
   17.5447   66.8066   -5.7257 C   0  0  0  0  0  0  0  0  0  0  0  0
   16.6254   67.5383   -4.7330 C   0  0  0  0  0  0  0  0  0  0  0  0
   16.7623   69.0302   -4.8627 C   0  0  0  0  0  0  0  0  0  0  0  0
   15.8104   69.7092   -5.3321 O   0  0  0  0  0  0  0  0  0  0  0  0
   17.9696   69.6838   -4.4659 N   0  0  0  0  0  0  0  0  0  0  0  0
   18.0471   70.7242   -4.5154 H   0  0  0  0  0  0  0  0  0  0  0  0
   18.7944   69.1383   -4.1325 H   0  0  0  0  0  0  0  0  0  0  0  0
   17.2808   62.2220   -5.0675 C   0  0  0  0  0  0  0  0  0  0  0  0
   16.0079   62.2683   -4.2048 C   0  0  0  0  0  0  0  0  0  0  0  0
   15.4133   63.6833   -4.0863 C   0  0  0  0  0  0  0  0  0  0  0  0
   14.8738   64.2751   -5.4054 C   0  0  0  0  0  0  0  0  0  0  0  0
   13.7197   65.1532   -5.1983 N   0  0  0  0  0  0  0  0  0  0  0  0
   14.0440   66.0350   -4.7346 H   0  0  0  0  0  0  0  0  0  0  0  0
   13.0438   64.6855   -4.5599 H   0  0  0  0  0  0  0  0  0  0  0  0
   20.2844   64.5312    0.0115 C   0  0  0  0  0  0  0  0  0  0  0  0
   20.2704   64.3247    1.2543 O   0  0  0  0  0  0  0  0  0  0  0  0
   19.6355   63.6137   -0.8726 N   0  0  0  0  0  0  0  0  0  0  0  0
   19.1347   63.9896   -1.7113 H   0  0  0  0  0  0  0  0  0  0  0  0
   21.1553   65.6105   -0.5620 C   0  0  0  0  0  0  0  0  0  0  0  0
   20.2026   67.6601   -1.7390 C   0  0  0  0  0  0  0  0  0  0  0  0
   19.1096   68.0779   -2.2208 O   0  0  0  0  0  0  0  0  0  0  0  0
   20.4293   66.2421   -1.6670 N   0  0  0  0  0  0  0  0  0  0  0  0
   19.7896   65.6431   -2.2323 H   0  0  0  0  0  0  0  0  0  0  0  0
   21.2835   68.6445   -1.3451 C   0  0  0  0  0  0  0  0  0  0  0  0
   20.4903   69.7505    0.7918 C   0  0  0  0  0  0  0  0  0  0  0  0
   20.3302   68.6307    1.3514 O   0  0  0  0  0  0  0  0  0  0  0  0
   20.7497   69.8071   -0.6206 N   0  0  0  0  0  0  0  0  0  0  0  0
   20.5903   70.7147   -1.1088 H   0  0  0  0  0  0  0  0  0  0  0  0
   20.4342   71.0305    1.5916 C   0  0  0  0  0  0  0  0  0  0  0  0
   19.1867   71.0243    2.4743 C   0  0  0  0  0  0  0  0  0  0  0  0
   21.5734   72.5951   -0.0758 C   0  0  0  0  0  0  0  0  0  0  0  0
   22.6680   71.9813    0.0468 O   0  0  0  0  0  0  0  0  0  0  0  0
   20.4417   72.2267    0.7315 N   0  0  0  0  0  0  0  0  0  0  0  0
   19.5936   72.8266    0.6501 H   0  0  0  0  0  0  0  0  0  0  0  0
   21.4617   73.7201   -1.0751 C   0  0  0  0  0  0  0  0  0  0  0  0
   19.5184   73.8633   -2.6996 C   0  0  0  0  0  0  0  0  0  0  0  0
   19.5089   74.4970   -3.7917 O   0  0  0  0  0  0  0  0  0  0  0  0
   20.7411   73.2566   -2.2653 N   0  0  0  0  0  0  0  0  0  0  0  0
   21.3073   72.8023   -3.0102 H   0  0  0  0  0  0  0  0  0  0  0  0
   18.1973   73.6406   -1.9822 C   0  0  0  0  0  0  0  0  0  0  0  0
   16.2882   72.8050   -3.3871 C   0  0  0  0  0  0  0  0  0  0  0  0
   16.4081   73.5763   -4.3787 O   0  0  0  0  0  0  0  0  0  0  0  0
   17.4259   72.5381   -2.5604 N   0  0  0  0  0  0  0  0  0  0  0  0
   17.7156   71.5473   -2.4161 H   0  0  0  0  0  0  0  0  0  0  0  0
   14.2102   71.8295   -4.2299 N   0  0  0  0  0  0  0  0  0  0  0  0
   14.9322   72.2412   -3.0185 C   0  0  0  0  0  0  0  0  0  0  0  0
   13.2336   71.5678   -3.9580 H   0  0  0  0  0  0  0  0  0  0  0  0
   14.1165   72.6587   -4.8588 H   0  0  0  0  0  0  0  0  0  0  0  0
   15.0515   71.0773   -2.0096 C   0  0  0  0  0  0  0  0  0  0  0  0
   15.2894   71.6110   -0.7276 O   0  0  0  0  0  0  0  0  0  0  0  0
   13.7919   70.2005   -1.9686 C   0  0  0  0  0  0  0  0  0  0  0  0
   15.6118   70.8645   -0.1609 H   0  0  0  0  0  0  0  0  0  0  0  0
   17.3593   74.9299   -1.9302 C   0  0  0  0  0  0  0  0  0  0  0  0
   16.9737   75.3687   -0.5062 C   0  0  0  0  0  0  0  0  0  0  0  0
   18.0735   75.1039    0.4911 C   0  0  0  0  0  0  0  0  0  0  0  0
   18.0476   74.0907    1.2375 O   0  0  0  0  0  0  0  0  0  0  0  0
   19.1734   76.0074    0.5827 N   0  0  0  0  0  0  0  0  0  0  0  0
   19.9490   75.8259    1.2545 H   0  0  0  0  0  0  0  0  0  0  0  0
   19.2392   76.8342   -0.0558 H   0  0  0  0  0  0  0  0  0  0  0  0
   22.8089   74.4010   -1.4623 C   0  0  0  0  0  0  0  0  0  0  0  0
   22.7794   75.9004   -1.8256 C   0  0  0  0  0  0  0  0  0  0  0  0
   22.5438   76.2409   -3.2794 C   0  0  0  0  0  0  0  0  0  0  0  0
   22.2364   77.4238   -3.5718 O   0  0  0  0  0  0  0  0  0  0  0  0
   22.6097   75.2705   -4.3297 N   0  0  0  0  0  0  0  0  0  0  0  0
   22.6786   74.2480   -4.1484 H   0  0  0  0  0  0  0  0  0  0  0  0
   22.4687   75.5715   -5.3231 H   0  0  0  0  0  0  0  0  0  0  0  0
   22.0461   69.0948   -2.6085 C   0  0  0  0  0  0  0  0  0  0  0  0
   22.6960   70.3223   -2.3913 O   0  0  0  0  0  0  0  0  0  0  0  0
   23.5867   70.1048   -2.0028 H   0  0  0  0  0  0  0  0  0  0  0  0
   22.5127   65.0616   -1.0385 C   0  0  0  0  0  0  0  0  0  0  0  0
   23.6317   65.6325   -0.2141 C   0  0  0  0  0  0  0  0  0  0  0  0
   23.4968   66.3088    0.9843 C   0  0  0  0  0  0  0  0  0  0  0  0
   24.7129   66.7257    1.3935 N   0  0  0  0  0  0  0  0  0  0  0  0
   25.5585   66.2893    0.4311 C   0  0  0  0  0  0  0  0  0  0  0  0
   24.9294   65.6143   -0.5531 N   0  0  0  0  0  0  0  0  0  0  0  0
   25.3636   65.2052   -1.4084 H   0  0  0  0  0  0  0  0  0  0  0  0
 95 96  1  0  0  0
 96 91  1  0  0  0
 91 92  2  0  0  0
 91 93  1  0  0  0
 93 90  1  0  0  0
 90103  1  0  0  0
103104  1  0  0  0
104105  1  0  0  0
105106  2  0  0  0
105107  1  0  0  0
 90 86  1  0  0  0
 86 87  2  0  0  0
 86 88  1  0  0  0
 88 85  1  0  0  0
 85110  1  0  0  0
110111  1  0  0  0
111112  1  0  0  0
112113  2  0  0  0
112114  1  0  0  0
 85 81  1  0  0  0
 81 82  2  0  0  0
 81 83  1  0  0  0
 83 79  1  0  0  0
 79 80  1  0  0  0
 79 75  1  0  0  0
 75 76  2  0  0  0
 75 77  1  0  0  0
 77 74  1  0  0  0
 74117  1  0  0  0
117118  1  0  0  0
 74 70  1  0  0  0
 70 71  2  0  0  0
 70 72  1  0  0  0
 72 69  1  0  0  0
 69120  1  0  0  0
120121  1  0  0  0
121122  2  0  0  0
122123  1  0  0  0
123124  2  0  0  0
124125  1  0  0  0
 69 65  1  0  0  0
 65 66  2  0  0  0
 65 67  1  0  0  0
 67  1  1  0  0  0
  1  2  1  0  0  0
  2  3  2  0  0  0
  3  4  1  0  0  0
  4  5  2  0  0  0
  5  6  1  0  0  0
  5  7  1  0  0  0
  7  8  2  0  0  0
  1 10  1  0  0  0
 10 11  2  0  0  0
 10 12  1  0  0  0
 12 14  1  0  0  0
 14 58  1  0  0  0
 58 59  1  0  0  0
 59 60  1  0  0  0
 60 61  1  0  0  0
 61 62  1  0  0  0
 14 15  1  0  0  0
 15 16  2  0  0  0
 15 17  1  0  0  0
 17 19  1  0  0  0
 19 51  1  0  0  0
 51 52  1  0  0  0
 52 53  1  0  0  0
 53 54  2  0  0  0
 53 55  1  0  0  0
 19 20  1  0  0  0
 20 21  2  0  0  0
 20 22  1  0  0  0
 22 24  1  0  0  0
 24 44  1  0  0  0
 44 45  1  0  0  0
 45 46  2  0  0  0
 46 47  1  0  0  0
 47 48  2  0  0  0
 48 49  1  0  0  0
 24 25  1  0  0  0
 25 26  2  0  0  0
 25 27  1  0  0  0
 27 29  1  0  0  0
 29 41  1  0  0  0
 41 42  1  0  0  0
 29 30  1  0  0  0
 30 31  2  0  0  0
 30 32  1  0  0  0
 32 33  1  0  0  0
 33 34  1  0  0  0
 34 35  1  0  0  0
 35 36  1  0  0  0
 36 37  1  0  0  0
 37 38  1  0  0  0
 37 39  2  0  0  0
 96 99  1  0  0  0
 99100  1  0  0  0
 99101  1  0  0  0
125121  1  0  0  0
  8  2  1  0  0  0
 49 45  1  0  0  0
 36 32  1  0  0  0
 95 97  1  0  0  0
 95 98  1  0  0  0
 93 94  1  0  0  0
107108  1  0  0  0
107109  1  0  0  0
 88 89  1  0  0  0
114115  1  0  0  0
114116  1  0  0  0
 83 84  1  0  0  0
 77 78  1  0  0  0
118119  1  0  0  0
 72 73  1  0  0  0
125126  1  0  0  0
 67 68  1  0  0  0
  6  9  1  0  0  0
 12 13  1  0  0  0
 62 63  1  0  0  0
 62 64  1  0  0  0
 17 18  1  0  0  0
 55 56  1  0  0  0
 55 57  1  0  0  0
 22 23  1  0  0  0
 49 50  1  0  0  0
 27 28  1  0  0  0
 42 43  1  0  0  0
 38 40  1  0  0  0
100102  1  0  0  0
M  END
> <minimizedAffinity>
-5.45335

$$$$
