


126129  0  0  0  0  0  0  0  0999 V2000
   -0.3040   43.5735  -27.4837 C   0  0  0  0  0  0  0  0  0  0  0  0
   -0.9113   42.9246  -27.0255 C   0  0  0  0  0  0  0  0  0  0  0  0
   -1.8543   42.8147  -27.3399 C   0  0  0  0  0  0  0  0  0  0  0  0
   -2.4617   42.1657  -26.8816 C   0  0  0  0  0  0  0  0  0  0  0  0
   -2.1261   41.6266  -26.1091 C   0  0  0  0  0  0  0  0  0  0  0  0
   -2.7335   40.9777  -25.6509 O   0  0  0  0  0  0  0  0  0  0  0  0
   -1.1832   41.7365  -25.7948 C   0  0  0  0  0  0  0  0  0  0  0  0
   -0.5758   42.3854  -26.2530 C   0  0  0  0  0  0  0  0  0  0  0  0
   -3.6170   40.8747  -25.9455 H   0  0  0  0  0  0  0  0  0  0  0  0
    0.4527   43.2391  -28.0455 C   0  0  0  0  0  0  0  0  0  0  0  0
    0.7758   42.2986  -27.9405 O   0  0  0  0  0  0  0  0  0  0  0  0
    0.8863   43.8452  -28.7122 N   0  0  0  0  0  0  0  0  0  0  0  0
    0.5683   44.7712  -28.8156 H   0  0  0  0  0  0  0  0  0  0  0  0
    1.6431   43.5108  -29.2740 C   0  0  0  0  0  0  0  0  0  0  0  0
    2.5830   43.5809  -28.9398 C   0  0  0  0  0  0  0  0  0  0  0  0
    3.2303   42.8376  -29.1084 O   0  0  0  0  0  0  0  0  0  0  0  0
    2.8755   44.3943  -28.4370 N   0  0  0  0  0  0  0  0  0  0  0  0
    2.2381   45.1260  -28.2710 H   0  0  0  0  0  0  0  0  0  0  0  0
    3.8154   44.4644  -28.1028 C   0  0  0  0  0  0  0  0  0  0  0  0
    4.4921   44.9884  -28.6199 C   0  0  0  0  0  0  0  0  0  0  0  0
    5.4580   44.7323  -28.5823 O   0  0  0  0  0  0  0  0  0  0  0  0
    4.2029   45.7687  -29.1746 N   0  0  0  0  0  0  0  0  0  0  0  0
    3.2520   46.0208  -29.2116 H   0  0  0  0  0  0  0  0  0  0  0  0
    4.8797   46.2927  -29.6917 C   0  0  0  0  0  0  0  0  0  0  0  0
    5.1871   47.1825  -29.3545 C   0  0  0  0  0  0  0  0  0  0  0  0
    4.5188   47.8974  -29.1490 O   0  0  0  0  0  0  0  0  0  0  0  0
    6.1628   47.3573  -29.2227 N   0  0  0  0  0  0  0  0  0  0  0  0
    6.8207   46.6535  -29.4251 H   0  0  0  0  0  0  0  0  0  0  0  0
    6.4703   48.2471  -28.8855 C   0  0  0  0  0  0  0  0  0  0  0  0
    6.7895   48.9427  -29.5292 C   0  0  0  0  0  0  0  0  0  0  0  0
    6.2193   49.7399  -29.7273 O   0  0  0  0  0  0  0  0  0  0  0  0
    7.6790   48.8410  -29.9747 N   0  0  0  0  0  0  0  0  0  0  0  0
    8.3191   48.0839  -29.8434 C   0  0  0  0  0  0  0  0  0  0  0  0
    9.1202   48.2537  -30.4173 C   0  0  0  0  0  0  0  0  0  0  0  0
    8.9753   49.1155  -30.9033 C   0  0  0  0  0  0  0  0  0  0  0  0
    8.0846   49.4785  -30.6297 C   0  0  0  0  0  0  0  0  0  0  0  0
    7.6719   50.3296  -30.9542 C   0  0  0  0  0  0  0  0  0  0  0  0
    7.8406   51.1854  -30.4651 O   0  0  0  0  0  0  0  0  0  0  0  0
    7.0905   50.3249  -31.7679 O   0  0  0  0  0  0  0  0  0  0  0  0
    8.3853   51.1897  -29.7028 H   0  0  0  0  0  0  0  0  0  0  0  0
    6.4585   48.4414  -27.9046 C   0  0  0  0  0  0  0  0  0  0  0  0
    6.9962   47.8785  -27.2769 S   0  0  0  0  0  0  0  0  0  0  0  0
    7.7434   46.8486  -27.7572 H   0  0  0  0  0  0  0  0  0  0  0  0
    5.2490   45.9269  -30.5460 C   0  0  0  0  0  0  0  0  0  0  0  0
    4.6961   45.9474  -31.3790 C   0  0  0  0  0  0  0  0  0  0  0  0
    4.4379   45.1557  -31.9328 C   0  0  0  0  0  0  0  0  0  0  0  0
    3.8866   45.4821  -32.7005 N   0  0  0  0  0  0  0  0  0  0  0  0
    3.8040   46.4756  -32.6213 C   0  0  0  0  0  0  0  0  0  0  0  0
    4.3043   46.7631  -31.8046 N   0  0  0  0  0  0  0  0  0  0  0  0
    4.3952   47.6871  -31.4770 H   0  0  0  0  0  0  0  0  0  0  0  0
    4.0785   44.0104  -27.2515 C   0  0  0  0  0  0  0  0  0  0  0  0
    3.6619   44.2898  -26.3864 C   0  0  0  0  0  0  0  0  0  0  0  0
    4.0900   44.0340  -25.5196 C   0  0  0  0  0  0  0  0  0  0  0  0
    4.5536   44.7269  -24.9673 O   0  0  0  0  0  0  0  0  0  0  0  0
    4.0546   43.0854  -25.2052 N   0  0  0  0  0  0  0  0  0  0  0  0
    3.5982   42.4033  -25.7491 H   0  0  0  0  0  0  0  0  0  0  0  0
    4.4761   42.8336  -24.3519 H   0  0  0  0  0  0  0  0  0  0  0  0
    1.4599   43.1063  -30.1700 C   0  0  0  0  0  0  0  0  0  0  0  0
    1.1897   43.6896  -30.9361 C   0  0  0  0  0  0  0  0  0  0  0  0
    0.7347   43.2905  -31.7322 C   0  0  0  0  0  0  0  0  0  0  0  0
    0.8391   43.7138  -32.6321 C   0  0  0  0  0  0  0  0  0  0  0  0
    0.0305   43.9894  -33.1519 N   0  0  0  0  0  0  0  0  0  0  0  0
   -0.9009   43.8387  -32.7640 H   0  0  0  0  0  0  0  0  0  0  0  0
    0.1369   44.4211  -34.0698 H   0  0  0  0  0  0  0  0  0  0  0  0
    0.0071   45.0580  -26.6475 C   0  0  0  0  0  0  0  0  0  0  0  0
    0.6168   44.5759  -26.0183 O   0  0  0  0  0  0  0  0  0  0  0  0
   -0.4533   44.5568  -27.3802 N   0  0  0  0  0  0  0  0  0  0  0  0
   -1.0535   45.0315  -27.9996 H   0  0  0  0  0  0  0  0  0  0  0  0
   -0.1422   46.0414  -26.5439 C   0  0  0  0  0  0  0  0  0  0  0  0
    1.1173   47.0537  -27.1673 C   0  0  0  0  0  0  0  0  0  0  0  0
    0.8229   46.8457  -28.1001 O   0  0  0  0  0  0  0  0  0  0  0  0
    0.6348   46.6516  -26.3893 N   0  0  0  0  0  0  0  0  0  0  0  0
    0.9247   46.8563  -25.4709 H   0  0  0  0  0  0  0  0  0  0  0  0
    1.8943   47.6639  -27.0127 C   0  0  0  0  0  0  0  0  0  0  0  0
    1.7937   49.3260  -27.4895 C   0  0  0  0  0  0  0  0  0  0  0  0
    1.2859   49.5349  -26.6537 O   0  0  0  0  0  0  0  0  0  0  0  0
    2.0979   48.3905  -27.6689 N   0  0  0  0  0  0  0  0  0  0  0  0
    2.5978   48.1847  -28.4917 H   0  0  0  0  0  0  0  0  0  0  0  0
    1.9972   50.0525  -28.1457 C   0  0  0  0  0  0  0  0  0  0  0  0
    2.0286   51.0051  -27.8432 C   0  0  0  0  0  0  0  0  0  0  0  0
    1.4750   50.0223  -29.7968 C   0  0  0  0  0  0  0  0  0  0  0  0
    0.6084   50.4441  -29.5304 O   0  0  0  0  0  0  0  0  0  0  0  0
    2.1695   49.8265  -29.1044 N   0  0  0  0  0  0  0  0  0  0  0  0
    3.0227   49.4112  -29.3667 H   0  0  0  0  0  0  0  0  0  0  0  0
    1.6472   49.7963  -30.7557 C   0  0  0  0  0  0  0  0  0  0  0  0
    0.9353   48.3362  -31.3569 C   0  0  0  0  0  0  0  0  0  0  0  0
    1.6320   47.8002  -30.8801 O   0  0  0  0  0  0  0  0  0  0  0  0
    0.9429   49.3342  -31.2947 N   0  0  0  0  0  0  0  0  0  0  0  0
    0.2571   49.8620  -31.7641 H   0  0  0  0  0  0  0  0  0  0  0  0
    0.2310   47.8742  -31.8959 C   0  0  0  0  0  0  0  0  0  0  0  0
    0.2691   47.8530  -33.6274 C   0  0  0  0  0  0  0  0  0  0  0  0
    0.8861   47.0664  -33.6042 O   0  0  0  0  0  0  0  0  0  0  0  0
   -0.0585   48.2569  -32.7733 N   0  0  0  0  0  0  0  0  0  0  0  0
   -0.6660   49.0313  -32.7960 H   0  0  0  0  0  0  0  0  0  0  0  0
    0.5870   48.8515  -35.0066 N   0  0  0  0  0  0  0  0  0  0  0  0
   -0.0205   48.2357  -34.5048 C   0  0  0  0  0  0  0  0  0  0  0  0
    0.2918   49.2419  -35.9014 H   0  0  0  0  0  0  0  0  0  0  0  0
    1.5020   49.0892  -34.6234 H   0  0  0  0  0  0  0  0  0  0  0  0
   -0.9175   48.0027  -34.8804 C   0  0  0  0  0  0  0  0  0  0  0  0
   -1.1621   47.0452  -35.0333 O   0  0  0  0  0  0  0  0  0  0  0  0
   -1.5699   48.7271  -35.1030 C   0  0  0  0  0  0  0  0  0  0  0  0
   -0.5292   46.3425  -34.8173 H   0  0  0  0  0  0  0  0  0  0  0  0
   -0.1837   47.0296  -31.5576 C   0  0  0  0  0  0  0  0  0  0  0  0
   -1.0953   47.0497  -31.1470 C   0  0  0  0  0  0  0  0  0  0  0  0
   -1.5616   46.1940  -30.9223 C   0  0  0  0  0  0  0  0  0  0  0  0
   -1.4135   45.7628  -30.0323 O   0  0  0  0  0  0  0  0  0  0  0  0
   -2.1758   45.7696  -31.5875 N   0  0  0  0  0  0  0  0  0  0  0  0
   -2.3215   46.1942  -32.4637 H   0  0  0  0  0  0  0  0  0  0  0  0
   -2.6348   44.9273  -31.3662 H   0  0  0  0  0  0  0  0  0  0  0  0
    2.5236   50.0322  -31.1754 C   0  0  0  0  0  0  0  0  0  0  0  0
    2.5745   50.7754  -31.8425 C   0  0  0  0  0  0  0  0  0  0  0  0
    3.2297   50.7266  -32.5964 C   0  0  0  0  0  0  0  0  0  0  0  0
    2.9656   50.3002  -33.4615 O   0  0  0  0  0  0  0  0  0  0  0  0
    4.1490   51.1042  -32.4852 N   0  0  0  0  0  0  0  0  0  0  0  0
    4.4090   51.5241  -31.6335 H   0  0  0  0  0  0  0  0  0  0  0  0
    4.7940   51.0562  -33.2274 H   0  0  0  0  0  0  0  0  0  0  0  0
    2.4678   47.5475  -26.2018 C   0  0  0  0  0  0  0  0  0  0  0  0
    3.4510   47.3956  -26.3023 O   0  0  0  0  0  0  0  0  0  0  0  0
    4.0073   47.2826  -25.5157 H   0  0  0  0  0  0  0  0  0  0  0  0
   -1.0687   46.4146  -26.5950 C   0  0  0  0  0  0  0  0  0  0  0  0
   -1.4297   46.9616  -25.8398 C   0  0  0  0  0  0  0  0  0  0  0  0
   -1.8005   46.6066  -24.9817 C   0  0  0  0  0  0  0  0  0  0  0  0
   -2.0834   47.3853  -24.4216 N   0  0  0  0  0  0  0  0  0  0  0  0
   -1.8874   48.2216  -24.9337 C   0  0  0  0  0  0  0  0  0  0  0  0
   -1.4834   47.9597  -25.8102 N   0  0  0  0  0  0  0  0  0  0  0  0
   -1.1900   48.5763  -26.5194 H   0  0  0  0  0  0  0  0  0  0  0  0
 95 96  1  0  0  0
 95 97  1  0  0  0
 95 98  1  0  0  0
 96 91  1  0  0  0
 96 99  1  0  0  0
 91 92  2  0  0  0
 91 93  1  0  0  0
 93 90  1  0  0  0
 93 94  1  0  0  0
 90103  1  0  0  0
 90 86  1  0  0  0
103104  1  0  0  0
104105  1  0  0  0
105106  2  0  0  0
105107  1  0  0  0
107108  1  0  0  0
107109  1  0  0  0
 86 87  2  0  0  0
 86 88  1  0  0  0
 88 85  1  0  0  0
 88 89  1  0  0  0
 85110  1  0  0  0
 85 81  1  0  0  0
110111  1  0  0  0
111112  1  0  0  0
112113  2  0  0  0
112114  1  0  0  0
114115  1  0  0  0
114116  1  0  0  0
 81 82  2  0  0  0
 81 83  1  0  0  0
 83 79  1  0  0  0
 83 84  1  0  0  0
 79 80  1  0  0  0
 79 75  1  0  0  0
 75 76  2  0  0  0
 75 77  1  0  0  0
 77 74  1  0  0  0
 77 78  1  0  0  0
 74117  1  0  0  0
 74 70  1  0  0  0
117118  1  0  0  0
118119  1  0  0  0
 70 71  2  0  0  0
 70 72  1  0  0  0
 72 69  1  0  0  0
 72 73  1  0  0  0
 69120  1  0  0  0
 69 65  1  0  0  0
120121  1  0  0  0
121125  1  0  0  0
121122  2  0  0  0
122123  1  0  0  0
123124  2  0  0  0
124125  1  0  0  0
125126  1  0  0  0
 65 66  2  0  0  0
 65 67  1  0  0  0
 67  1  1  0  0  0
 67 68  1  0  0  0
  1  2  1  0  0  0
  1 10  1  0  0  0
  2  8  2  0  0  0
  2  3  1  0  0  0
  3  4  2  0  0  0
  4  5  1  0  0  0
  5  6  1  0  0  0
  5  7  2  0  0  0
  6  9  1  0  0  0
  7  8  1  0  0  0
 10 11  2  0  0  0
 10 12  1  0  0  0
 12 14  1  0  0  0
 12 13  1  0  0  0
 14 58  1  0  0  0
 14 15  1  0  0  0
 58 59  1  0  0  0
 59 60  1  0  0  0
 60 61  1  0  0  0
 61 62  1  0  0  0
 62 63  1  0  0  0
 62 64  1  0  0  0
 15 16  2  0  0  0
 15 17  1  0  0  0
 17 19  1  0  0  0
 17 18  1  0  0  0
 19 51  1  0  0  0
 19 20  1  0  0  0
 51 52  1  0  0  0
 52 53  1  0  0  0
 53 54  2  0  0  0
 53 55  1  0  0  0
 55 56  1  0  0  0
 55 57  1  0  0  0
 20 21  2  0  0  0
 20 22  1  0  0  0
 22 24  1  0  0  0
 22 23  1  0  0  0
 24 44  1  0  0  0
 24 25  1  0  0  0
 44 45  1  0  0  0
 45 49  1  0  0  0
 45 46  2  0  0  0
 46 47  1  0  0  0
 47 48  2  0  0  0
 48 49  1  0  0  0
 49 50  1  0  0  0
 25 26  2  0  0  0
 25 27  1  0  0  0
 27 29  1  0  0  0
 27 28  1  0  0  0
 29 41  1  0  0  0
 29 30  1  0  0  0
 41 42  1  0  0  0
 42 43  1  0  0  0
 30 31  2  0  0  0
 30 32  1  0  0  0
 32 36  1  0  0  0
 32 33  1  0  0  0
 33 34  1  0  0  0
 34 35  1  0  0  0
 35 36  1  0  0  0
 36 37  1  0  0  0
 37 38  1  0  0  0
 37 39  2  0  0  0
 38 40  1  0  0  0
 99100  1  0  0  0
 99101  1  0  0  0
100102  1  0  0  0
M  END
> <minimizedAffinity>
-4.64827

$$$$



126129  0  0  0  0  0  0  0  0999 V2000
   -3.6296   38.9182  -46.4344 C   0  0  0  0  0  0  0  0  0  0  0  0
   -2.6327   38.8743  -46.4988 C   0  0  0  0  0  0  0  0  0  0  0  0
   -2.1977   38.1532  -47.0381 C   0  0  0  0  0  0  0  0  0  0  0  0
   -1.2007   38.1094  -47.1025 C   0  0  0  0  0  0  0  0  0  0  0  0
   -0.6387   38.7867  -46.6277 C   0  0  0  0  0  0  0  0  0  0  0  0
    0.3582   38.7428  -46.6921 O   0  0  0  0  0  0  0  0  0  0  0  0
   -1.0737   39.5078  -46.0884 C   0  0  0  0  0  0  0  0  0  0  0  0
   -2.0706   39.5516  -46.0239 C   0  0  0  0  0  0  0  0  0  0  0  0
    0.7658   38.0671  -47.1974 H   0  0  0  0  0  0  0  0  0  0  0  0
   -4.1855   38.9031  -47.2655 C   0  0  0  0  0  0  0  0  0  0  0  0
   -3.9576   38.2733  -48.0081 O   0  0  0  0  0  0  0  0  0  0  0  0
   -4.9693   39.5178  -47.3540 N   0  0  0  0  0  0  0  0  0  0  0  0
   -5.1936   40.1378  -46.6229 H   0  0  0  0  0  0  0  0  0  0  0  0
   -5.5252   39.5027  -48.1851 C   0  0  0  0  0  0  0  0  0  0  0  0
   -5.4738   40.2611  -48.8349 C   0  0  0  0  0  0  0  0  0  0  0  0
   -5.2926   41.1884  -48.5076 O   0  0  0  0  0  0  0  0  0  0  0  0
   -5.6036   40.0921  -49.8119 N   0  0  0  0  0  0  0  0  0  0  0  0
   -5.7819   39.1791  -50.1341 H   0  0  0  0  0  0  0  0  0  0  0  0
   -5.5522   40.8504  -50.4617 C   0  0  0  0  0  0  0  0  0  0  0  0
   -4.9279   40.7995  -51.2412 C   0  0  0  0  0  0  0  0  0  0  0  0
   -4.0079   41.1849  -51.1711 O   0  0  0  0  0  0  0  0  0  0  0  0
   -5.2237   40.3630  -52.0910 N   0  0  0  0  0  0  0  0  0  0  0  0
   -6.1295   39.9835  -52.1601 H   0  0  0  0  0  0  0  0  0  0  0  0
   -4.5995   40.3121  -52.8706 C   0  0  0  0  0  0  0  0  0  0  0  0
   -4.1340   39.4529  -53.0830 C   0  0  0  0  0  0  0  0  0  0  0  0
   -3.2243   39.4664  -53.4980 O   0  0  0  0  0  0  0  0  0  0  0  0
   -4.5783   38.5802  -52.8805 N   0  0  0  0  0  0  0  0  0  0  0  0
   -5.4739   38.5669  -52.4719 H   0  0  0  0  0  0  0  0  0  0  0  0
   -4.1128   37.7210  -53.0929 C   0  0  0  0  0  0  0  0  0  0  0  0
   -3.5577   37.2674  -52.3957 C   0  0  0  0  0  0  0  0  0  0  0  0
   -2.5610   37.2608  -52.4764 O   0  0  0  0  0  0  0  0  0  0  0  0
   -3.9994   36.8203  -51.6178 N   0  0  0  0  0  0  0  0  0  0  0  0
   -4.9838   36.7725  -51.4486 C   0  0  0  0  0  0  0  0  0  0  0  0
   -5.1269   36.2652  -50.5987 C   0  0  0  0  0  0  0  0  0  0  0  0
   -4.2309   35.9995  -50.2428 C   0  0  0  0  0  0  0  0  0  0  0  0
   -3.5341   36.3426  -50.8726 C   0  0  0  0  0  0  0  0  0  0  0  0
   -2.5456   36.2280  -50.7745 C   0  0  0  0  0  0  0  0  0  0  0  0
   -2.1027   35.3968  -51.1106 O   0  0  0  0  0  0  0  0  0  0  0  0
   -1.9998   36.9448  -50.3403 O   0  0  0  0  0  0  0  0  0  0  0  0
   -2.6141   34.7253  -51.5174 H   0  0  0  0  0  0  0  0  0  0  0  0
   -4.2025   37.3154  -54.0026 C   0  0  0  0  0  0  0  0  0  0  0  0
   -5.1074   37.0854  -54.3606 S   0  0  0  0  0  0  0  0  0  0  0  0
   -6.2163   37.3243  -53.6103 H   0  0  0  0  0  0  0  0  0  0  0  0
   -4.4407   41.1203  -53.4376 C   0  0  0  0  0  0  0  0  0  0  0  0
   -5.1856   41.5008  -53.9856 C   0  0  0  0  0  0  0  0  0  0  0  0
   -5.6568   41.0400  -54.7377 C   0  0  0  0  0  0  0  0  0  0  0  0
   -6.3525   41.6633  -55.0947 N   0  0  0  0  0  0  0  0  0  0  0  0
   -6.3113   42.5094  -54.5632 C   0  0  0  0  0  0  0  0  0  0  0  0
   -5.5901   42.4089  -53.8778 N   0  0  0  0  0  0  0  0  0  0  0  0
   -5.3249   43.0854  -53.2134 H   0  0  0  0  0  0  0  0  0  0  0  0
   -6.1250   41.6598  -50.3319 C   0  0  0  0  0  0  0  0  0  0  0  0
   -7.0532   41.6802  -50.7035 C   0  0  0  0  0  0  0  0  0  0  0  0
   -7.5315   42.5523  -50.8062 C   0  0  0  0  0  0  0  0  0  0  0  0
   -8.0654   42.7356  -51.6318 O   0  0  0  0  0  0  0  0  0  0  0  0
   -7.4760   43.2412  -50.0835 N   0  0  0  0  0  0  0  0  0  0  0  0
   -6.9503   43.0608  -49.2709 H   0  0  0  0  0  0  0  0  0  0  0  0
   -7.9470   44.0998  -50.1847 H   0  0  0  0  0  0  0  0  0  0  0  0
   -6.1326   38.7292  -48.3664 C   0  0  0  0  0  0  0  0  0  0  0  0
   -6.9992   38.6479  -47.8741 C   0  0  0  0  0  0  0  0  0  0  0  0
   -7.5517   37.8197  -47.9679 C   0  0  0  0  0  0  0  0  0  0  0  0
   -8.4968   37.8095  -47.6413 C   0  0  0  0  0  0  0  0  0  0  0  0
   -8.7367   38.2757  -46.7898 N   0  0  0  0  0  0  0  0  0  0  0  0
   -8.0173   38.7618  -46.2544 H   0  0  0  0  0  0  0  0  0  0  0  0
   -9.7006   38.2653  -46.4567 H   0  0  0  0  0  0  0  0  0  0  0  0
   -4.3527   38.1432  -45.0645 C   0  0  0  0  0  0  0  0  0  0  0  0
   -4.1936   37.2502  -45.4857 O   0  0  0  0  0  0  0  0  0  0  0  0
   -4.0707   38.9771  -45.5388 N   0  0  0  0  0  0  0  0  0  0  0  0
   -4.2273   39.8562  -45.1242 H   0  0  0  0  0  0  0  0  0  0  0  0
   -4.7937   38.2022  -44.1689 C   0  0  0  0  0  0  0  0  0  0  0  0
   -3.8894   38.7492  -42.7968 C   0  0  0  0  0  0  0  0  0  0  0  0
   -4.0298   39.6973  -43.0821 O   0  0  0  0  0  0  0  0  0  0  0  0
   -4.2713   38.0017  -43.3402 N   0  0  0  0  0  0  0  0  0  0  0  0
   -4.1331   37.0683  -43.0592 H   0  0  0  0  0  0  0  0  0  0  0  0
   -3.3670   38.5487  -41.9680 C   0  0  0  0  0  0  0  0  0  0  0  0
   -4.0106   38.3728  -40.3696 C   0  0  0  0  0  0  0  0  0  0  0  0
   -4.1083   37.3886  -40.5173 O   0  0  0  0  0  0  0  0  0  0  0  0
   -3.6399   38.9529  -41.0949 N   0  0  0  0  0  0  0  0  0  0  0  0
   -3.5437   39.9218  -40.9496 H   0  0  0  0  0  0  0  0  0  0  0  0
   -4.2835   38.7769  -39.4965 C   0  0  0  0  0  0  0  0  0  0  0  0
   -5.0944   38.4373  -39.0201 C   0  0  0  0  0  0  0  0  0  0  0  0
   -4.1680   40.4125  -38.9386 C   0  0  0  0  0  0  0  0  0  0  0  0
   -5.1285   40.5606  -39.1740 O   0  0  0  0  0  0  0  0  0  0  0  0
   -3.7454   39.5207  -39.0999 N   0  0  0  0  0  0  0  0  0  0  0  0
   -2.7998   39.3749  -38.8682 H   0  0  0  0  0  0  0  0  0  0  0  0
   -3.6299   41.1564  -38.5420 C   0  0  0  0  0  0  0  0  0  0  0  0
   -2.8424   42.2584  -39.6215 C   0  0  0  0  0  0  0  0  0  0  0  0
   -2.1259   41.5815  -39.7898 O   0  0  0  0  0  0  0  0  0  0  0  0
   -3.5944   42.0459  -38.9976 N   0  0  0  0  0  0  0  0  0  0  0  0
   -4.2999   42.7123  -38.8319 H   0  0  0  0  0  0  0  0  0  0  0  0
   -2.8070   43.1479  -40.0771 C   0  0  0  0  0  0  0  0  0  0  0  0
   -4.1673   43.5935  -41.0522 C   0  0  0  0  0  0  0  0  0  0  0  0
   -3.8516   42.9777  -41.7741 O   0  0  0  0  0  0  0  0  0  0  0  0
   -3.6450   43.6786  -40.2038 N   0  0  0  0  0  0  0  0  0  0  0  0
   -3.9557   44.2848  -39.4930 H   0  0  0  0  0  0  0  0  0  0  0  0
   -4.9895   44.9607  -41.7267 N   0  0  0  0  0  0  0  0  0  0  0  0
   -5.0054   44.1243  -41.1788 C   0  0  0  0  0  0  0  0  0  0  0  0
   -5.8443   45.5021  -41.8558 H   0  0  0  0  0  0  0  0  0  0  0  0
   -4.1185   45.2724  -42.1565 H   0  0  0  0  0  0  0  0  0  0  0  0
   -5.8592   43.8187  -40.7575 C   0  0  0  0  0  0  0  0  0  0  0  0
   -6.1587   42.8707  -40.8654 O   0  0  0  0  0  0  0  0  0  0  0  0
   -6.4135   44.4610  -40.2283 C   0  0  0  0  0  0  0  0  0  0  0  0
   -5.6210   42.2476  -41.3788 H   0  0  0  0  0  0  0  0  0  0  0  0
   -1.9335   43.5066  -40.4062 C   0  0  0  0  0  0  0  0  0  0  0  0
   -1.5260   44.3087  -39.9695 C   0  0  0  0  0  0  0  0  0  0  0  0
   -0.8869   44.8848  -40.4791 C   0  0  0  0  0  0  0  0  0  0  0  0
   -0.9818   44.9819  -41.4698 O   0  0  0  0  0  0  0  0  0  0  0  0
   -0.1528   45.3639  -39.9978 N   0  0  0  0  0  0  0  0  0  0  0  0
   -0.0593   45.2683  -39.0225 H   0  0  0  0  0  0  0  0  0  0  0  0
    0.4765   45.9310  -40.4994 H   0  0  0  0  0  0  0  0  0  0  0  0
   -3.1274   41.0108  -37.6898 C   0  0  0  0  0  0  0  0  0  0  0  0
   -3.5362   41.2763  -36.8167 C   0  0  0  0  0  0  0  0  0  0  0  0
   -3.0321   41.1343  -35.9648 C   0  0  0  0  0  0  0  0  0  0  0  0
   -2.7660   41.9187  -35.4046 O   0  0  0  0  0  0  0  0  0  0  0  0
   -2.7941   40.2078  -35.6732 N   0  0  0  0  0  0  0  0  0  0  0  0
   -3.0560   39.4355  -36.2247 H   0  0  0  0  0  0  0  0  0  0  0  0
   -2.2977   40.0680  -34.8345 H   0  0  0  0  0  0  0  0  0  0  0  0
   -2.5718   37.9441  -42.0122 C   0  0  0  0  0  0  0  0  0  0  0  0
   -1.6746   38.3149  -42.2522 O   0  0  0  0  0  0  0  0  0  0  0  0
   -0.9031   37.7283  -42.2951 H   0  0  0  0  0  0  0  0  0  0  0  0
   -5.7572   38.4616  -44.1022 C   0  0  0  0  0  0  0  0  0  0  0  0
   -6.4453   37.7741  -43.8700 C   0  0  0  0  0  0  0  0  0  0  0  0
   -6.8922   37.6664  -42.9820 C   0  0  0  0  0  0  0  0  0  0  0  0
   -7.5304   36.8993  -43.0482 N   0  0  0  0  0  0  0  0  0  0  0  0
   -7.4778   36.5330  -43.9773 C   0  0  0  0  0  0  0  0  0  0  0  0
   -6.8072   37.0737  -44.4851 N   0  0  0  0  0  0  0  0  0  0  0  0
   -6.5486   36.9398  -45.4256 H   0  0  0  0  0  0  0  0  0  0  0  0
 95 96  1  0  0  0
 95 97  1  0  0  0
 95 98  1  0  0  0
 96 91  1  0  0  0
 96 99  1  0  0  0
 91 92  2  0  0  0
 91 93  1  0  0  0
 93 90  1  0  0  0
 93 94  1  0  0  0
 90103  1  0  0  0
 90 86  1  0  0  0
103104  1  0  0  0
104105  1  0  0  0
105106  2  0  0  0
105107  1  0  0  0
107108  1  0  0  0
107109  1  0  0  0
 86 87  2  0  0  0
 86 88  1  0  0  0
 88 85  1  0  0  0
 88 89  1  0  0  0
 85110  1  0  0  0
 85 81  1  0  0  0
110111  1  0  0  0
111112  1  0  0  0
112113  2  0  0  0
112114  1  0  0  0
114115  1  0  0  0
114116  1  0  0  0
 81 82  2  0  0  0
 81 83  1  0  0  0
 83 79  1  0  0  0
 83 84  1  0  0  0
 79 80  1  0  0  0
 79 75  1  0  0  0
 75 76  2  0  0  0
 75 77  1  0  0  0
 77 74  1  0  0  0
 77 78  1  0  0  0
 74117  1  0  0  0
 74 70  1  0  0  0
117118  1  0  0  0
118119  1  0  0  0
 70 71  2  0  0  0
 70 72  1  0  0  0
 72 69  1  0  0  0
 72 73  1  0  0  0
 69120  1  0  0  0
 69 65  1  0  0  0
120121  1  0  0  0
121125  1  0  0  0
121122  2  0  0  0
122123  1  0  0  0
123124  2  0  0  0
124125  1  0  0  0
125126  1  0  0  0
 65 66  2  0  0  0
 65 67  1  0  0  0
 67  1  1  0  0  0
 67 68  1  0  0  0
  1  2  1  0  0  0
  1 10  1  0  0  0
  2  8  2  0  0  0
  2  3  1  0  0  0
  3  4  2  0  0  0
  4  5  1  0  0  0
  5  6  1  0  0  0
  5  7  2  0  0  0
  6  9  1  0  0  0
  7  8  1  0  0  0
 10 11  2  0  0  0
 10 12  1  0  0  0
 12 14  1  0  0  0
 12 13  1  0  0  0
 14 58  1  0  0  0
 14 15  1  0  0  0
 58 59  1  0  0  0
 59 60  1  0  0  0
 60 61  1  0  0  0
 61 62  1  0  0  0
 62 63  1  0  0  0
 62 64  1  0  0  0
 15 16  2  0  0  0
 15 17  1  0  0  0
 17 19  1  0  0  0
 17 18  1  0  0  0
 19 51  1  0  0  0
 19 20  1  0  0  0
 51 52  1  0  0  0
 52 53  1  0  0  0
 53 54  2  0  0  0
 53 55  1  0  0  0
 55 56  1  0  0  0
 55 57  1  0  0  0
 20 21  2  0  0  0
 20 22  1  0  0  0
 22 24  1  0  0  0
 22 23  1  0  0  0
 24 44  1  0  0  0
 24 25  1  0  0  0
 44 45  1  0  0  0
 45 49  1  0  0  0
 45 46  2  0  0  0
 46 47  1  0  0  0
 47 48  2  0  0  0
 48 49  1  0  0  0
 49 50  1  0  0  0
 25 26  2  0  0  0
 25 27  1  0  0  0
 27 29  1  0  0  0
 27 28  1  0  0  0
 29 41  1  0  0  0
 29 30  1  0  0  0
 41 42  1  0  0  0
 42 43  1  0  0  0
 30 31  2  0  0  0
 30 32  1  0  0  0
 32 36  1  0  0  0
 32 33  1  0  0  0
 33 34  1  0  0  0
 34 35  1  0  0  0
 35 36  1  0  0  0
 36 37  1  0  0  0
 37 38  1  0  0  0
 37 39  2  0  0  0
 38 40  1  0  0  0
 99100  1  0  0  0
 99101  1  0  0  0
100102  1  0  0  0
M  END
> <minimizedAffinity>
-4.49504

$$$$



126129  0  0  0  0  0  0  0  0999 V2000
   -3.6670   38.0888  -45.7395 C   0  0  0  0  0  0  0  0  0  0  0  0
   -2.7110   38.3466  -45.8788 C   0  0  0  0  0  0  0  0  0  0  0  0
   -1.9834   37.6840  -45.7011 C   0  0  0  0  0  0  0  0  0  0  0  0
   -1.0273   37.9419  -45.8405 C   0  0  0  0  0  0  0  0  0  0  0  0
   -0.7988   38.8623  -46.1576 C   0  0  0  0  0  0  0  0  0  0  0  0
    0.1573   39.1201  -46.2970 O   0  0  0  0  0  0  0  0  0  0  0  0
   -1.5263   39.5249  -46.3354 C   0  0  0  0  0  0  0  0  0  0  0  0
   -2.4824   39.2671  -46.1960 C   0  0  0  0  0  0  0  0  0  0  0  0
    0.8390   38.4993  -46.1304 H   0  0  0  0  0  0  0  0  0  0  0  0
   -4.2406   37.8527  -46.5238 C   0  0  0  0  0  0  0  0  0  0  0  0
   -4.9666   37.1721  -46.4254 O   0  0  0  0  0  0  0  0  0  0  0  0
   -4.0882   38.2971  -47.4065 N   0  0  0  0  0  0  0  0  0  0  0  0
   -3.3734   38.9672  -47.5034 H   0  0  0  0  0  0  0  0  0  0  0  0
   -4.6618   38.0610  -48.1910 C   0  0  0  0  0  0  0  0  0  0  0  0
   -5.3628   38.6997  -48.5081 C   0  0  0  0  0  0  0  0  0  0  0  0
   -5.9224   38.4725  -49.3051 O   0  0  0  0  0  0  0  0  0  0  0  0
   -5.5042   39.5656  -48.0282 N   0  0  0  0  0  0  0  0  0  0  0  0
   -4.9532   39.7892  -47.2436 H   0  0  0  0  0  0  0  0  0  0  0  0
   -6.2052   40.2043  -48.3454 C   0  0  0  0  0  0  0  0  0  0  0  0
   -7.1605   40.0690  -48.0827 C   0  0  0  0  0  0  0  0  0  0  0  0
   -7.8782   40.0888  -48.7788 O   0  0  0  0  0  0  0  0  0  0  0  0
   -7.3983   39.9138  -47.1238 N   0  0  0  0  0  0  0  0  0  0  0  0
   -6.6918   39.8942  -46.4384 H   0  0  0  0  0  0  0  0  0  0  0  0
   -8.3536   39.7784  -46.8611 C   0  0  0  0  0  0  0  0  0  0  0  0
   -8.6724   38.8720  -46.5841 C   0  0  0  0  0  0  0  0  0  0  0  0
   -8.6099   38.5911  -45.6265 O   0  0  0  0  0  0  0  0  0  0  0  0
   -9.0537   38.2465  -47.2648 N   0  0  0  0  0  0  0  0  0  0  0  0
   -9.1152   38.5231  -48.2076 H   0  0  0  0  0  0  0  0  0  0  0  0
   -9.3725   37.3401  -46.9879 C   0  0  0  0  0  0  0  0  0  0  0  0
   -8.7831   36.5423  -47.1150 C   0  0  0  0  0  0  0  0  0  0  0  0
   -8.4566   36.0302  -46.3206 O   0  0  0  0  0  0  0  0  0  0  0  0
   -8.5201   36.2567  -48.0366 N   0  0  0  0  0  0  0  0  0  0  0  0
   -8.7934   36.7007  -48.8899 C   0  0  0  0  0  0  0  0  0  0  0  0
   -8.3799   36.1953  -49.6473 C   0  0  0  0  0  0  0  0  0  0  0  0
   -7.8511   35.4391  -49.2620 C   0  0  0  0  0  0  0  0  0  0  0  0
   -7.9378   35.4770  -48.2666 C   0  0  0  0  0  0  0  0  0  0  0  0
   -7.5161   34.8460  -47.6154 C   0  0  0  0  0  0  0  0  0  0  0  0
   -6.5981   35.0298  -47.2639 O   0  0  0  0  0  0  0  0  0  0  0  0
   -8.0124   34.0312  -47.3157 O   0  0  0  0  0  0  0  0  0  0  0  0
   -6.1331   35.7932  -47.5448 H   0  0  0  0  0  0  0  0  0  0  0  0
  -10.2808   37.2313  -46.5837 C   0  0  0  0  0  0  0  0  0  0  0  0
  -11.0965   37.3239  -47.1547 S   0  0  0  0  0  0  0  0  0  0  0  0
  -10.9707   37.5978  -48.4809 H   0  0  0  0  0  0  0  0  0  0  0  0
   -8.9902   40.5495  -46.8754 C   0  0  0  0  0  0  0  0  0  0  0  0
   -8.8679   41.3107  -46.2385 C   0  0  0  0  0  0  0  0  0  0  0  0
   -8.7878   41.2382  -45.2443 C   0  0  0  0  0  0  0  0  0  0  0  0
   -8.6747   42.1606  -44.8752 N   0  0  0  0  0  0  0  0  0  0  0  0
   -8.6849   42.8034  -45.6413 C   0  0  0  0  0  0  0  0  0  0  0  0
   -8.8044   42.2780  -46.4838 N   0  0  0  0  0  0  0  0  0  0  0  0
   -8.8511   42.6483  -47.3949 H   0  0  0  0  0  0  0  0  0  0  0  0
   -5.9509   40.9783  -48.9252 C   0  0  0  0  0  0  0  0  0  0  0  0
   -5.3040   41.6631  -48.5897 C   0  0  0  0  0  0  0  0  0  0  0  0
   -4.8146   42.2479  -49.2366 C   0  0  0  0  0  0  0  0  0  0  0  0
   -3.9406   41.9482  -49.6192 O   0  0  0  0  0  0  0  0  0  0  0  0
   -5.1991   43.1323  -49.5009 N   0  0  0  0  0  0  0  0  0  0  0  0
   -6.0595   43.4273  -49.1241 H   0  0  0  0  0  0  0  0  0  0  0  0
   -4.7173   43.7081  -50.1377 H   0  0  0  0  0  0  0  0  0  0  0  0
   -4.5343   37.1861  -48.6582 C   0  0  0  0  0  0  0  0  0  0  0  0
   -3.7333   37.0416  -49.2393 C   0  0  0  0  0  0  0  0  0  0  0  0
   -3.6015   36.1638  -49.6998 C   0  0  0  0  0  0  0  0  0  0  0  0
   -2.7600   35.9888  -50.2110 C   0  0  0  0  0  0  0  0  0  0  0  0
   -1.9908   35.5302  -49.7659 N   0  0  0  0  0  0  0  0  0  0  0  0
   -2.0646   35.2411  -48.7905 H   0  0  0  0  0  0  0  0  0  0  0  0
   -1.1325   35.3517  -50.2872 H   0  0  0  0  0  0  0  0  0  0  0  0
   -4.6742   38.7883  -44.5162 C   0  0  0  0  0  0  0  0  0  0  0  0
   -4.9164   39.5312  -45.1404 O   0  0  0  0  0  0  0  0  0  0  0  0
   -4.0495   38.0672  -44.8158 N   0  0  0  0  0  0  0  0  0  0  0  0
   -3.8111   37.3359  -44.2013 H   0  0  0  0  0  0  0  0  0  0  0  0
   -5.0567   38.7667  -43.5925 C   0  0  0  0  0  0  0  0  0  0  0  0
   -4.0281   39.4833  -42.3973 C   0  0  0  0  0  0  0  0  0  0  0  0
   -4.2112   40.3879  -42.7821 O   0  0  0  0  0  0  0  0  0  0  0  0
   -4.4508   38.6726  -42.8025 N   0  0  0  0  0  0  0  0  0  0  0  0
   -4.2705   37.7820  -42.4237 H   0  0  0  0  0  0  0  0  0  0  0  0
   -3.4222   39.3893  -41.6074 C   0  0  0  0  0  0  0  0  0  0  0  0
   -3.5228   40.0941  -40.0285 C   0  0  0  0  0  0  0  0  0  0  0  0
   -3.9171   39.2459  -39.6749 O   0  0  0  0  0  0  0  0  0  0  0  0
   -3.2753   40.1658  -40.9947 N   0  0  0  0  0  0  0  0  0  0  0  0
   -2.8871   41.0008  -41.3428 H   0  0  0  0  0  0  0  0  0  0  0  0
   -3.3759   40.8707  -39.4158 C   0  0  0  0  0  0  0  0  0  0  0  0
   -3.1705   40.7135  -38.4498 C   0  0  0  0  0  0  0  0  0  0  0  0
   -2.6122   42.3711  -39.8225 C   0  0  0  0  0  0  0  0  0  0  0  0
   -1.7316   42.0041  -39.5227 O   0  0  0  0  0  0  0  0  0  0  0  0
   -3.4344   41.8043  -39.7690 N   0  0  0  0  0  0  0  0  0  0  0  0
   -4.3013   42.1656  -40.0641 H   0  0  0  0  0  0  0  0  0  0  0  0
   -2.6707   43.3048  -40.1758 C   0  0  0  0  0  0  0  0  0  0  0  0
   -3.9803   43.7985  -41.1962 C   0  0  0  0  0  0  0  0  0  0  0  0
   -3.5050   43.4188  -41.9898 O   0  0  0  0  0  0  0  0  0  0  0  0
   -3.5631   43.7416  -40.2892 N   0  0  0  0  0  0  0  0  0  0  0  0
   -4.0310   44.1154  -39.5078 H   0  0  0  0  0  0  0  0  0  0  0  0
   -4.8727   44.2352  -41.3096 C   0  0  0  0  0  0  0  0  0  0  0  0
   -6.3294   43.3169  -41.1242 C   0  0  0  0  0  0  0  0  0  0  0  0
   -6.2683   43.4202  -40.1314 O   0  0  0  0  0  0  0  0  0  0  0  0
   -5.6317   43.7244  -41.7133 N   0  0  0  0  0  0  0  0  0  0  0  0
   -5.6919   43.6227  -42.6907 H   0  0  0  0  0  0  0  0  0  0  0  0
   -7.7294   43.2655  -42.1428 N   0  0  0  0  0  0  0  0  0  0  0  0
   -7.0885   42.8060  -41.5279 C   0  0  0  0  0  0  0  0  0  0  0  0
   -8.5036   42.7445  -42.5546 H   0  0  0  0  0  0  0  0  0  0  0  0
   -7.6090   44.2552  -42.3581 H   0  0  0  0  0  0  0  0  0  0  0  0
   -7.2065   41.8357  -41.3168 C   0  0  0  0  0  0  0  0  0  0  0  0
   -6.4060   41.2567  -41.1619 O   0  0  0  0  0  0  0  0  0  0  0  0
   -8.1250   41.4443  -41.2606 C   0  0  0  0  0  0  0  0  0  0  0  0
   -5.5150   41.6364  -41.2164 H   0  0  0  0  0  0  0  0  0  0  0  0
   -5.0061   45.1828  -41.0193 C   0  0  0  0  0  0  0  0  0  0  0  0
   -4.8741   45.9289  -41.6719 C   0  0  0  0  0  0  0  0  0  0  0  0
   -4.8547   46.8760  -41.3513 C   0  0  0  0  0  0  0  0  0  0  0  0
   -5.7018   47.3254  -41.0677 O   0  0  0  0  0  0  0  0  0  0  0  0
   -3.9881   47.3737  -41.3145 N   0  0  0  0  0  0  0  0  0  0  0  0
   -3.1542   46.9313  -41.5938 H   0  0  0  0  0  0  0  0  0  0  0  0
   -3.9690   48.3060  -40.9990 H   0  0  0  0  0  0  0  0  0  0  0  0
   -1.8367   43.8018  -40.4157 C   0  0  0  0  0  0  0  0  0  0  0  0
   -1.5833   44.6265  -39.9102 C   0  0  0  0  0  0  0  0  0  0  0  0
   -0.9380   45.2785  -40.3083 C   0  0  0  0  0  0  0  0  0  0  0  0
   -1.2471   45.9259  -41.0050 O   0  0  0  0  0  0  0  0  0  0  0  0
    0.0165   45.2831  -40.0098 N   0  0  0  0  0  0  0  0  0  0  0  0
    0.3207   44.6457  -39.3239 H   0  0  0  0  0  0  0  0  0  0  0  0
    0.6517   45.9249  -40.4018 H   0  0  0  0  0  0  0  0  0  0  0  0
   -2.9632   38.5187  -41.4301 C   0  0  0  0  0  0  0  0  0  0  0  0
   -2.1103   38.2977  -41.9031 O   0  0  0  0  0  0  0  0  0  0  0  0
   -1.6651   37.4532  -41.7311 H   0  0  0  0  0  0  0  0  0  0  0  0
   -6.0451   38.8390  -43.4588 C   0  0  0  0  0  0  0  0  0  0  0  0
   -6.5694   38.0406  -43.1630 C   0  0  0  0  0  0  0  0  0  0  0  0
   -6.9361   37.8851  -42.2458 C   0  0  0  0  0  0  0  0  0  0  0  0
   -7.4125   37.0058  -42.2483 N   0  0  0  0  0  0  0  0  0  0  0  0
   -7.3402   36.6179  -43.1673 C   0  0  0  0  0  0  0  0  0  0  0  0
   -6.8192   37.2575  -43.7325 N   0  0  0  0  0  0  0  0  0  0  0  0
   -6.5920   37.1373  -44.6829 H   0  0  0  0  0  0  0  0  0  0  0  0
 95 96  1  0  0  0
 95 97  1  0  0  0
 95 98  1  0  0  0
 96 91  1  0  0  0
 96 99  1  0  0  0
 91 92  2  0  0  0
 91 93  1  0  0  0
 93 90  1  0  0  0
 93 94  1  0  0  0
 90103  1  0  0  0
 90 86  1  0  0  0
103104  1  0  0  0
104105  1  0  0  0
105106  2  0  0  0
105107  1  0  0  0
107108  1  0  0  0
107109  1  0  0  0
 86 87  2  0  0  0
 86 88  1  0  0  0
 88 85  1  0  0  0
 88 89  1  0  0  0
 85110  1  0  0  0
 85 81  1  0  0  0
110111  1  0  0  0
111112  1  0  0  0
112113  2  0  0  0
112114  1  0  0  0
114115  1  0  0  0
114116  1  0  0  0
 81 82  2  0  0  0
 81 83  1  0  0  0
 83 79  1  0  0  0
 83 84  1  0  0  0
 79 80  1  0  0  0
 79 75  1  0  0  0
 75 76  2  0  0  0
 75 77  1  0  0  0
 77 74  1  0  0  0
 77 78  1  0  0  0
 74117  1  0  0  0
 74 70  1  0  0  0
117118  1  0  0  0
118119  1  0  0  0
 70 71  2  0  0  0
 70 72  1  0  0  0
 72 69  1  0  0  0
 72 73  1  0  0  0
 69120  1  0  0  0
 69 65  1  0  0  0
120121  1  0  0  0
121125  1  0  0  0
121122  2  0  0  0
122123  1  0  0  0
123124  2  0  0  0
124125  1  0  0  0
125126  1  0  0  0
 65 66  2  0  0  0
 65 67  1  0  0  0
 67  1  1  0  0  0
 67 68  1  0  0  0
  1  2  1  0  0  0
  1 10  1  0  0  0
  2  8  2  0  0  0
  2  3  1  0  0  0
  3  4  2  0  0  0
  4  5  1  0  0  0
  5  6  1  0  0  0
  5  7  2  0  0  0
  6  9  1  0  0  0
  7  8  1  0  0  0
 10 11  2  0  0  0
 10 12  1  0  0  0
 12 14  1  0  0  0
 12 13  1  0  0  0
 14 58  1  0  0  0
 14 15  1  0  0  0
 58 59  1  0  0  0
 59 60  1  0  0  0
 60 61  1  0  0  0
 61 62  1  0  0  0
 62 63  1  0  0  0
 62 64  1  0  0  0
 15 16  2  0  0  0
 15 17  1  0  0  0
 17 19  1  0  0  0
 17 18  1  0  0  0
 19 51  1  0  0  0
 19 20  1  0  0  0
 51 52  1  0  0  0
 52 53  1  0  0  0
 53 54  2  0  0  0
 53 55  1  0  0  0
 55 56  1  0  0  0
 55 57  1  0  0  0
 20 21  2  0  0  0
 20 22  1  0  0  0
 22 24  1  0  0  0
 22 23  1  0  0  0
 24 44  1  0  0  0
 24 25  1  0  0  0
 44 45  1  0  0  0
 45 49  1  0  0  0
 45 46  2  0  0  0
 46 47  1  0  0  0
 47 48  2  0  0  0
 48 49  1  0  0  0
 49 50  1  0  0  0
 25 26  2  0  0  0
 25 27  1  0  0  0
 27 29  1  0  0  0
 27 28  1  0  0  0
 29 41  1  0  0  0
 29 30  1  0  0  0
 41 42  1  0  0  0
 42 43  1  0  0  0
 30 31  2  0  0  0
 30 32  1  0  0  0
 32 36  1  0  0  0
 32 33  1  0  0  0
 33 34  1  0  0  0
 34 35  1  0  0  0
 35 36  1  0  0  0
 36 37  1  0  0  0
 37 38  1  0  0  0
 37 39  2  0  0  0
 38 40  1  0  0  0
 99100  1  0  0  0
 99101  1  0  0  0
100102  1  0  0  0
M  END
> <minimizedAffinity>
-4.46177

$$$$



126129  0  0  0  0  0  0  0  0999 V2000
   -3.5188   38.4103  -46.3567 C   0  0  0  0  0  0  0  0  0  0  0  0
   -2.5261   38.5244  -46.3956 C   0  0  0  0  0  0  0  0  0  0  0  0
   -1.9580   37.8193  -46.8199 C   0  0  0  0  0  0  0  0  0  0  0  0
   -0.9652   37.9334  -46.8587 C   0  0  0  0  0  0  0  0  0  0  0  0
   -0.5407   38.7526  -46.4732 C   0  0  0  0  0  0  0  0  0  0  0  0
    0.4520   38.8667  -46.5120 O   0  0  0  0  0  0  0  0  0  0  0  0
   -1.1088   39.4577  -46.0489 C   0  0  0  0  0  0  0  0  0  0  0  0
   -2.1015   39.3437  -46.0100 C   0  0  0  0  0  0  0  0  0  0  0  0
    0.9844   38.2060  -46.9096 H   0  0  0  0  0  0  0  0  0  0  0  0
   -4.0180   38.0970  -47.1646 C   0  0  0  0  0  0  0  0  0  0  0  0
   -4.1288   37.1179  -47.3353 O   0  0  0  0  0  0  0  0  0  0  0  0
   -4.4065   38.7627  -47.8016 N   0  0  0  0  0  0  0  0  0  0  0  0
   -4.2974   39.7266  -47.6335 H   0  0  0  0  0  0  0  0  0  0  0  0
   -4.9057   38.4494  -48.6095 C   0  0  0  0  0  0  0  0  0  0  0  0
   -4.4178   38.2876  -49.4672 C   0  0  0  0  0  0  0  0  0  0  0  0
   -3.6702   38.8934  -49.7391 O   0  0  0  0  0  0  0  0  0  0  0  0
   -4.6775   37.5199  -50.0530 N   0  0  0  0  0  0  0  0  0  0  0  0
   -5.4136   36.9234  -49.7853 H   0  0  0  0  0  0  0  0  0  0  0  0
   -4.1896   37.3580  -50.9108 C   0  0  0  0  0  0  0  0  0  0  0  0
   -4.4731   37.8319  -51.7444 C   0  0  0  0  0  0  0  0  0  0  0  0
   -5.4092   37.7333  -52.0819 O   0  0  0  0  0  0  0  0  0  0  0  0
   -3.8204   38.4046  -52.2406 N   0  0  0  0  0  0  0  0  0  0  0  0
   -2.8988   38.5017  -51.9084 H   0  0  0  0  0  0  0  0  0  0  0  0
   -4.1040   38.8785  -53.0743 C   0  0  0  0  0  0  0  0  0  0  0  0
   -4.3329   39.8514  -53.0430 C   0  0  0  0  0  0  0  0  0  0  0  0
   -3.6073   40.5377  -53.0931 O   0  0  0  0  0  0  0  0  0  0  0  0
   -5.2875   40.1381  -52.9616 N   0  0  0  0  0  0  0  0  0  0  0  0
   -6.0018   39.4624  -52.9123 H   0  0  0  0  0  0  0  0  0  0  0  0
   -5.5165   41.1110  -52.9303 C   0  0  0  0  0  0  0  0  0  0  0  0
   -6.1728   41.4488  -52.2557 C   0  0  0  0  0  0  0  0  0  0  0  0
   -7.1437   41.5066  -52.4881 O   0  0  0  0  0  0  0  0  0  0  0  0
   -5.8582   41.7287  -51.3486 N   0  0  0  0  0  0  0  0  0  0  0  0
   -4.9132   41.7084  -51.0221 C   0  0  0  0  0  0  0  0  0  0  0  0
   -4.9044   42.0452  -50.0806 C   0  0  0  0  0  0  0  0  0  0  0  0
   -5.8438   42.2736  -49.8253 C   0  0  0  0  0  0  0  0  0  0  0  0
   -6.4333   42.0780  -50.6090 C   0  0  0  0  0  0  0  0  0  0  0  0
   -7.4240   42.2087  -50.6464 C   0  0  0  0  0  0  0  0  0  0  0  0
   -7.8018   43.0827  -50.9523 O   0  0  0  0  0  0  0  0  0  0  0  0
   -8.0369   41.4656  -50.3779 O   0  0  0  0  0  0  0  0  0  0  0  0
   -7.2275   43.7790  -51.2038 H   0  0  0  0  0  0  0  0  0  0  0  0
   -5.0891   41.7462  -53.5738 C   0  0  0  0  0  0  0  0  0  0  0  0
   -5.5870   42.0431  -54.3885 S   0  0  0  0  0  0  0  0  0  0  0  0
   -6.8454   41.5831  -54.6217 H   0  0  0  0  0  0  0  0  0  0  0  0
   -4.1585   38.3796  -53.9392 C   0  0  0  0  0  0  0  0  0  0  0  0
   -3.3566   38.3201  -54.5336 C   0  0  0  0  0  0  0  0  0  0  0  0
   -3.3626   38.3461  -55.5332 C   0  0  0  0  0  0  0  0  0  0  0  0
   -2.4176   38.2663  -55.8502 N   0  0  0  0  0  0  0  0  0  0  0  0
   -1.8273   38.1910  -55.0464 C   0  0  0  0  0  0  0  0  0  0  0  0
   -2.4078   38.2243  -54.2327 N   0  0  0  0  0  0  0  0  0  0  0  0
   -2.0991   38.1719  -53.2993 H   0  0  0  0  0  0  0  0  0  0  0  0
   -3.4181   36.7222  -50.9348 C   0  0  0  0  0  0  0  0  0  0  0  0
   -3.5300   35.7872  -50.5982 C   0  0  0  0  0  0  0  0  0  0  0  0
   -2.7546   35.3073  -50.1879 C   0  0  0  0  0  0  0  0  0  0  0  0
   -1.9625   35.8237  -49.8622 O   0  0  0  0  0  0  0  0  0  0  0  0
   -2.7711   34.3110  -50.1034 N   0  0  0  0  0  0  0  0  0  0  0  0
   -3.5508   33.8027  -50.4241 H   0  0  0  0  0  0  0  0  0  0  0  0
   -2.0076   33.8386  -49.6995 H   0  0  0  0  0  0  0  0  0  0  0  0
   -5.8930   38.2980  -48.5596 C   0  0  0  0  0  0  0  0  0  0  0  0
   -6.4980   39.0379  -48.2654 C   0  0  0  0  0  0  0  0  0  0  0  0
   -7.4366   38.8351  -47.9862 C   0  0  0  0  0  0  0  0  0  0  0  0
   -7.9526   39.5005  -47.4468 C   0  0  0  0  0  0  0  0  0  0  0  0
   -8.5058   39.1948  -46.6719 N   0  0  0  0  0  0  0  0  0  0  0  0
   -8.5437   38.2041  -46.4316 H   0  0  0  0  0  0  0  0  0  0  0  0
   -9.0322   39.8735  -46.1217 H   0  0  0  0  0  0  0  0  0  0  0  0
   -4.2643   37.8655  -44.8913 C   0  0  0  0  0  0  0  0  0  0  0  0
   -4.0227   36.9222  -45.1191 O   0  0  0  0  0  0  0  0  0  0  0  0
   -4.0123   38.6096  -45.5101 N   0  0  0  0  0  0  0  0  0  0  0  0
   -4.2500   39.5382  -45.2859 H   0  0  0  0  0  0  0  0  0  0  0  0
   -4.7577   38.0648  -44.0447 C   0  0  0  0  0  0  0  0  0  0  0  0
   -3.8867   38.7236  -42.7003 C   0  0  0  0  0  0  0  0  0  0  0  0
   -3.9203   39.6295  -43.1225 O   0  0  0  0  0  0  0  0  0  0  0  0
   -4.3055   37.9413  -43.1614 N   0  0  0  0  0  0  0  0  0  0  0  0
   -4.2724   37.0494  -42.7458 H   0  0  0  0  0  0  0  0  0  0  0  0
   -3.4345   38.6001  -41.8171 C   0  0  0  0  0  0  0  0  0  0  0  0
   -4.0809   38.5526  -40.2109 C   0  0  0  0  0  0  0  0  0  0  0  0
   -4.0378   37.5536  -40.2231 O   0  0  0  0  0  0  0  0  0  0  0  0
   -3.7793   39.0758  -41.0079 N   0  0  0  0  0  0  0  0  0  0  0  0
   -3.8218   40.0593  -40.9959 H   0  0  0  0  0  0  0  0  0  0  0  0
   -4.4258   39.0283  -39.4017 C   0  0  0  0  0  0  0  0  0  0  0  0
   -5.2734   38.7248  -38.9666 C   0  0  0  0  0  0  0  0  0  0  0  0
   -4.3705   40.6978  -38.9439 C   0  0  0  0  0  0  0  0  0  0  0  0
   -5.3210   40.8088  -39.2342 O   0  0  0  0  0  0  0  0  0  0  0  0
   -3.9229   39.8075  -39.0277 N   0  0  0  0  0  0  0  0  0  0  0  0
   -2.9872   39.6982  -38.7418 H   0  0  0  0  0  0  0  0  0  0  0  0
   -3.8677   41.4771  -38.5698 C   0  0  0  0  0  0  0  0  0  0  0  0
   -3.1474   42.5687  -39.7054 C   0  0  0  0  0  0  0  0  0  0  0  0
   -2.4168   41.9079  -39.8772 O   0  0  0  0  0  0  0  0  0  0  0  0
   -3.8728   42.3533  -39.0517 N   0  0  0  0  0  0  0  0  0  0  0  0
   -4.5921   43.0039  -38.8826 H   0  0  0  0  0  0  0  0  0  0  0  0
   -3.1525   43.4449  -40.1873 C   0  0  0  0  0  0  0  0  0  0  0  0
   -1.9322   44.6532  -39.9615 C   0  0  0  0  0  0  0  0  0  0  0  0
   -2.4370   45.0167  -39.1785 O   0  0  0  0  0  0  0  0  0  0  0  0
   -2.2900   43.8673  -40.4659 N   0  0  0  0  0  0  0  0  0  0  0  0
   -1.7931   43.5095  -41.2368 H   0  0  0  0  0  0  0  0  0  0  0  0
   -0.2080   44.5847  -40.1117 N   0  0  0  0  0  0  0  0  0  0  0  0
   -1.0697   45.0757  -40.2402 C   0  0  0  0  0  0  0  0  0  0  0  0
    0.6717   45.0155  -40.3959 H   0  0  0  0  0  0  0  0  0  0  0  0
   -0.2090   43.6531  -39.6963 H   0  0  0  0  0  0  0  0  0  0  0  0
   -1.0688   45.9890  -40.6475 C   0  0  0  0  0  0  0  0  0  0  0  0
   -1.6049   46.1692  -41.4721 O   0  0  0  0  0  0  0  0  0  0  0  0
   -0.5319   46.7220  -40.2300 C   0  0  0  0  0  0  0  0  0  0  0  0
   -2.1258   45.4581  -41.8771 H   0  0  0  0  0  0  0  0  0  0  0  0
   -4.0201   43.8987  -40.3905 C   0  0  0  0  0  0  0  0  0  0  0  0
   -4.3809   43.8928  -41.3231 C   0  0  0  0  0  0  0  0  0  0  0  0
   -5.0184   44.6051  -41.6171 C   0  0  0  0  0  0  0  0  0  0  0  0
   -4.6705   45.4853  -41.9400 O   0  0  0  0  0  0  0  0  0  0  0  0
   -6.0037   44.4371  -41.5883 N   0  0  0  0  0  0  0  0  0  0  0  0
   -6.3462   43.5706  -41.2704 H   0  0  0  0  0  0  0  0  0  0  0  0
   -6.6313   45.1383  -41.8777 H   0  0  0  0  0  0  0  0  0  0  0  0
   -3.3598   41.3802  -37.7139 C   0  0  0  0  0  0  0  0  0  0  0  0
   -3.8137   41.5565  -36.8405 C   0  0  0  0  0  0  0  0  0  0  0  0
   -3.2690   41.7152  -36.0170 C   0  0  0  0  0  0  0  0  0  0  0  0
   -3.0601   42.6494  -35.7280 O   0  0  0  0  0  0  0  0  0  0  0  0
   -2.9331   40.9395  -35.4825 N   0  0  0  0  0  0  0  0  0  0  0  0
   -3.1387   40.0197  -35.7671 H   0  0  0  0  0  0  0  0  0  0  0  0
   -2.3968   41.0958  -34.6718 H   0  0  0  0  0  0  0  0  0  0  0  0
   -2.6374   38.0008  -41.7430 C   0  0  0  0  0  0  0  0  0  0  0  0
   -1.7483   38.3070  -42.0834 O   0  0  0  0  0  0  0  0  0  0  0  0
   -0.9751   37.7256  -42.0115 H   0  0  0  0  0  0  0  0  0  0  0  0
   -5.7036   38.3876  -44.0814 C   0  0  0  0  0  0  0  0  0  0  0  0
   -6.4572   37.7431  -43.9521 C   0  0  0  0  0  0  0  0  0  0  0  0
   -6.8887   37.5105  -43.0806 C   0  0  0  0  0  0  0  0  0  0  0  0
   -7.6099   36.8417  -43.2615 N   0  0  0  0  0  0  0  0  0  0  0  0
   -7.6240   36.6610  -44.2450 C   0  0  0  0  0  0  0  0  0  0  0  0
   -6.9116   37.2182  -44.6718 N   0  0  0  0  0  0  0  0  0  0  0  0
   -6.6955   37.2450  -45.6319 H   0  0  0  0  0  0  0  0  0  0  0  0
 95 96  1  0  0  0
 95 97  1  0  0  0
 95 98  1  0  0  0
 96 91  1  0  0  0
 96 99  1  0  0  0
 91 92  2  0  0  0
 91 93  1  0  0  0
 93 90  1  0  0  0
 93 94  1  0  0  0
 90103  1  0  0  0
 90 86  1  0  0  0
103104  1  0  0  0
104105  1  0  0  0
105106  2  0  0  0
105107  1  0  0  0
107108  1  0  0  0
107109  1  0  0  0
 86 87  2  0  0  0
 86 88  1  0  0  0
 88 85  1  0  0  0
 88 89  1  0  0  0
 85110  1  0  0  0
 85 81  1  0  0  0
110111  1  0  0  0
111112  1  0  0  0
112113  2  0  0  0
112114  1  0  0  0
114115  1  0  0  0
114116  1  0  0  0
 81 82  2  0  0  0
 81 83  1  0  0  0
 83 79  1  0  0  0
 83 84  1  0  0  0
 79 80  1  0  0  0
 79 75  1  0  0  0
 75 76  2  0  0  0
 75 77  1  0  0  0
 77 74  1  0  0  0
 77 78  1  0  0  0
 74117  1  0  0  0
 74 70  1  0  0  0
117118  1  0  0  0
118119  1  0  0  0
 70 71  2  0  0  0
 70 72  1  0  0  0
 72 69  1  0  0  0
 72 73  1  0  0  0
 69120  1  0  0  0
 69 65  1  0  0  0
120121  1  0  0  0
121125  1  0  0  0
121122  2  0  0  0
122123  1  0  0  0
123124  2  0  0  0
124125  1  0  0  0
125126  1  0  0  0
 65 66  2  0  0  0
 65 67  1  0  0  0
 67  1  1  0  0  0
 67 68  1  0  0  0
  1  2  1  0  0  0
  1 10  1  0  0  0
  2  8  2  0  0  0
  2  3  1  0  0  0
  3  4  2  0  0  0
  4  5  1  0  0  0
  5  6  1  0  0  0
  5  7  2  0  0  0
  6  9  1  0  0  0
  7  8  1  0  0  0
 10 11  2  0  0  0
 10 12  1  0  0  0
 12 14  1  0  0  0
 12 13  1  0  0  0
 14 58  1  0  0  0
 14 15  1  0  0  0
 58 59  1  0  0  0
 59 60  1  0  0  0
 60 61  1  0  0  0
 61 62  1  0  0  0
 62 63  1  0  0  0
 62 64  1  0  0  0
 15 16  2  0  0  0
 15 17  1  0  0  0
 17 19  1  0  0  0
 17 18  1  0  0  0
 19 51  1  0  0  0
 19 20  1  0  0  0
 51 52  1  0  0  0
 52 53  1  0  0  0
 53 54  2  0  0  0
 53 55  1  0  0  0
 55 56  1  0  0  0
 55 57  1  0  0  0
 20 21  2  0  0  0
 20 22  1  0  0  0
 22 24  1  0  0  0
 22 23  1  0  0  0
 24 44  1  0  0  0
 24 25  1  0  0  0
 44 45  1  0  0  0
 45 49  1  0  0  0
 45 46  2  0  0  0
 46 47  1  0  0  0
 47 48  2  0  0  0
 48 49  1  0  0  0
 49 50  1  0  0  0
 25 26  2  0  0  0
 25 27  1  0  0  0
 27 29  1  0  0  0
 27 28  1  0  0  0
 29 41  1  0  0  0
 29 30  1  0  0  0
 41 42  1  0  0  0
 42 43  1  0  0  0
 30 31  2  0  0  0
 30 32  1  0  0  0
 32 36  1  0  0  0
 32 33  1  0  0  0
 33 34  1  0  0  0
 34 35  1  0  0  0
 35 36  1  0  0  0
 36 37  1  0  0  0
 37 38  1  0  0  0
 37 39  2  0  0  0
 38 40  1  0  0  0
 99100  1  0  0  0
 99101  1  0  0  0
100102  1  0  0  0
M  END
> <minimizedAffinity>
-4.24689

$$$$



126129  0  0  0  0  0  0  0  0999 V2000
   -5.1818   39.6518  -46.6727 C   0  0  0  0  0  0  0  0  0  0  0  0
   -6.0798   39.6000  -46.2358 C   0  0  0  0  0  0  0  0  0  0  0  0
   -6.5729   38.7304  -46.2080 C   0  0  0  0  0  0  0  0  0  0  0  0
   -7.4710   38.6787  -45.7711 C   0  0  0  0  0  0  0  0  0  0  0  0
   -7.8759   39.4964  -45.3621 C   0  0  0  0  0  0  0  0  0  0  0  0
   -8.7739   39.4445  -44.9252 O   0  0  0  0  0  0  0  0  0  0  0  0
   -7.3829   40.3659  -45.3899 C   0  0  0  0  0  0  0  0  0  0  0  0
   -6.4849   40.4178  -45.8267 C   0  0  0  0  0  0  0  0  0  0  0  0
   -9.2359   38.6297  -44.8991 H   0  0  0  0  0  0  0  0  0  0  0  0
   -5.1087   39.9093  -47.6362 C   0  0  0  0  0  0  0  0  0  0  0  0
   -4.5647   40.7055  -47.9011 O   0  0  0  0  0  0  0  0  0  0  0  0
   -5.5795   39.3705  -48.3348 N   0  0  0  0  0  0  0  0  0  0  0  0
   -6.1150   38.5866  -48.0740 H   0  0  0  0  0  0  0  0  0  0  0  0
   -5.5063   39.6279  -49.2984 C   0  0  0  0  0  0  0  0  0  0  0  0
   -4.8265   39.1861  -49.8837 C   0  0  0  0  0  0  0  0  0  0  0  0
   -4.0606   39.7158  -50.2481 O   0  0  0  0  0  0  0  0  0  0  0  0
   -4.9125   38.2146  -50.1046 N   0  0  0  0  0  0  0  0  0  0  0  0
   -5.6665   37.6931  -49.7458 H   0  0  0  0  0  0  0  0  0  0  0  0
   -4.2327   37.7728  -50.6900 C   0  0  0  0  0  0  0  0  0  0  0  0
   -4.3738   37.7347  -51.6792 C   0  0  0  0  0  0  0  0  0  0  0  0
   -5.2891   37.5723  -52.0479 O   0  0  0  0  0  0  0  0  0  0  0  0
   -3.5996   37.8591  -52.2999 N   0  0  0  0  0  0  0  0  0  0  0  0
   -2.6985   38.0189  -51.9369 H   0  0  0  0  0  0  0  0  0  0  0  0
   -3.7406   37.8210  -53.2891 C   0  0  0  0  0  0  0  0  0  0  0  0
   -3.7932   38.6670  -53.8196 C   0  0  0  0  0  0  0  0  0  0  0  0
   -3.0510   39.3353  -53.7698 O   0  0  0  0  0  0  0  0  0  0  0  0
   -4.5880   38.8448  -54.3999 N   0  0  0  0  0  0  0  0  0  0  0  0
   -5.3187   38.1868  -54.4489 H   0  0  0  0  0  0  0  0  0  0  0  0
   -4.6406   39.6908  -54.9303 C   0  0  0  0  0  0  0  0  0  0  0  0
   -5.1431   40.4766  -54.5698 C   0  0  0  0  0  0  0  0  0  0  0  0
   -4.6668   41.3390  -54.3986 O   0  0  0  0  0  0  0  0  0  0  0  0
   -6.1221   40.4000  -54.3805 N   0  0  0  0  0  0  0  0  0  0  0  0
   -6.6852   39.5851  -54.5176 C   0  0  0  0  0  0  0  0  0  0  0  0
   -7.6209   39.8063  -54.2427 C   0  0  0  0  0  0  0  0  0  0  0  0
   -7.6360   40.7579  -53.9357 C   0  0  0  0  0  0  0  0  0  0  0  0
   -6.7097   41.1248  -54.0208 C   0  0  0  0  0  0  0  0  0  0  0  0
   -6.4216   42.0534  -53.7874 C   0  0  0  0  0  0  0  0  0  0  0  0
   -6.0633   42.2513  -52.8750 O   0  0  0  0  0  0  0  0  0  0  0  0
   -6.4918   42.7843  -54.4663 O   0  0  0  0  0  0  0  0  0  0  0  0
   -5.9975   41.5665  -52.2388 H   0  0  0  0  0  0  0  0  0  0  0  0
   -4.1906   39.7512  -55.8214 C   0  0  0  0  0  0  0  0  0  0  0  0
   -4.5536   39.2401  -56.6005 S   0  0  0  0  0  0  0  0  0  0  0  0
   -5.6593   38.4630  -56.4483 H   0  0  0  0  0  0  0  0  0  0  0  0
   -3.8291   36.9368  -53.7479 C   0  0  0  0  0  0  0  0  0  0  0  0
   -3.0215   36.3647  -53.8910 C   0  0  0  0  0  0  0  0  0  0  0  0
   -2.8550   35.4691  -53.4784 C   0  0  0  0  0  0  0  0  0  0  0  0
   -1.9693   35.1386  -53.8041 N   0  0  0  0  0  0  0  0  0  0  0  0
   -1.5882   35.8299  -54.4181 C   0  0  0  0  0  0  0  0  0  0  0  0
   -2.2387   36.5877  -54.4718 N   0  0  0  0  0  0  0  0  0  0  0  0
   -2.1276   37.4091  -55.0031 H   0  0  0  0  0  0  0  0  0  0  0  0
   -3.4118   37.3691  -50.2861 C   0  0  0  0  0  0  0  0  0  0  0  0
   -3.4414   36.4406  -49.9161 C   0  0  0  0  0  0  0  0  0  0  0  0
   -2.5918   35.9355  -49.7644 C   0  0  0  0  0  0  0  0  0  0  0  0
   -1.7520   36.4273  -49.5341 O   0  0  0  0  0  0  0  0  0  0  0  0
   -2.5819   34.9386  -49.8429 N   0  0  0  0  0  0  0  0  0  0  0  0
   -3.4086   34.4545  -50.0696 H   0  0  0  0  0  0  0  0  0  0  0  0
   -1.7454   34.4414  -49.6935 H   0  0  0  0  0  0  0  0  0  0  0  0
   -6.1131   40.3270  -49.6766 C   0  0  0  0  0  0  0  0  0  0  0  0
   -7.0940   40.1488  -49.7543 C   0  0  0  0  0  0  0  0  0  0  0  0
   -7.6586   40.7133  -50.3565 C   0  0  0  0  0  0  0  0  0  0  0  0
   -7.9760   41.6101  -50.0485 C   0  0  0  0  0  0  0  0  0  0  0  0
   -8.4453   42.2207  -50.6866 N   0  0  0  0  0  0  0  0  0  0  0  0
   -8.6000   41.9286  -51.6516 H   0  0  0  0  0  0  0  0  0  0  0  0
   -8.7691   43.1354  -50.3724 H   0  0  0  0  0  0  0  0  0  0  0  0
   -3.9257   38.5474  -46.2230 C   0  0  0  0  0  0  0  0  0  0  0  0
   -4.3192   37.8540  -46.8267 O   0  0  0  0  0  0  0  0  0  0  0  0
   -4.3570   39.4463  -46.1460 N   0  0  0  0  0  0  0  0  0  0  0  0
   -3.9696   40.1289  -45.5518 H   0  0  0  0  0  0  0  0  0  0  0  0
   -3.1008   38.3418  -45.6964 C   0  0  0  0  0  0  0  0  0  0  0  0
   -3.2703   38.0818  -43.9924 C   0  0  0  0  0  0  0  0  0  0  0  0
   -3.6172   37.1604  -44.1675 O   0  0  0  0  0  0  0  0  0  0  0  0
   -3.0121   38.6725  -44.7568 N   0  0  0  0  0  0  0  0  0  0  0  0
   -2.6706   39.5797  -44.5845 H   0  0  0  0  0  0  0  0  0  0  0  0
   -3.1816   38.4125  -43.0529 C   0  0  0  0  0  0  0  0  0  0  0  0
   -4.1424   39.5543  -42.1737 C   0  0  0  0  0  0  0  0  0  0  0  0
   -4.6358   38.8025  -41.7364 O   0  0  0  0  0  0  0  0  0  0  0  0
   -3.4153   39.3593  -42.8319 N   0  0  0  0  0  0  0  0  0  0  0  0
   -2.9294   40.0995  -43.2623 H   0  0  0  0  0  0  0  0  0  0  0  0
   -4.3760   40.5012  -41.9527 C   0  0  0  0  0  0  0  0  0  0  0  0
   -5.1093   40.9645  -42.4504 C   0  0  0  0  0  0  0  0  0  0  0  0
   -4.3039   41.7538  -40.7587 C   0  0  0  0  0  0  0  0  0  0  0  0
   -5.2309   42.0392  -41.0020 O   0  0  0  0  0  0  0  0  0  0  0  0
   -3.8765   40.9848  -41.2340 N   0  0  0  0  0  0  0  0  0  0  0  0
   -2.9638   40.7039  -40.9944 H   0  0  0  0  0  0  0  0  0  0  0  0
   -3.8044   42.2375  -40.0399 C   0  0  0  0  0  0  0  0  0  0  0  0
   -2.7708   43.6119  -40.2468 C   0  0  0  0  0  0  0  0  0  0  0  0
   -1.9821   43.0045  -40.3412 O   0  0  0  0  0  0  0  0  0  0  0  0
   -3.6820   43.2284  -40.0961 N   0  0  0  0  0  0  0  0  0  0  0  0
   -4.4585   43.8263  -40.0032 H   0  0  0  0  0  0  0  0  0  0  0  0
   -2.6484   44.6027  -40.3030 C   0  0  0  0  0  0  0  0  0  0  0  0
   -2.3007   45.4046  -41.7984 C   0  0  0  0  0  0  0  0  0  0  0  0
   -3.2776   45.4336  -42.0100 O   0  0  0  0  0  0  0  0  0  0  0  0
   -1.9861   44.9891  -40.9449 N   0  0  0  0  0  0  0  0  0  0  0  0
   -1.0243   44.9605  -40.7366 H   0  0  0  0  0  0  0  0  0  0  0  0
   -0.9911   46.4879  -42.1318 N   0  0  0  0  0  0  0  0  0  0  0  0
   -1.6384   45.7909  -42.4403 C   0  0  0  0  0  0  0  0  0  0  0  0
   -0.3155   46.8820  -42.7864 H   0  0  0  0  0  0  0  0  0  0  0  0
   -1.0064   46.8047  -41.1623 H   0  0  0  0  0  0  0  0  0  0  0  0
   -1.6233   45.4803  -43.3907 C   0  0  0  0  0  0  0  0  0  0  0  0
   -1.2828   44.5667  -43.6128 O   0  0  0  0  0  0  0  0  0  0  0  0
   -1.9488   46.0833  -44.1190 C   0  0  0  0  0  0  0  0  0  0  0  0
   -0.9670   43.9818  -42.9063 H   0  0  0  0  0  0  0  0  0  0  0  0
   -3.1883   45.2073  -39.7173 C   0  0  0  0  0  0  0  0  0  0  0  0
   -2.7636   45.6469  -38.9260 C   0  0  0  0  0  0  0  0  0  0  0  0
   -3.3206   46.1877  -38.2956 C   0  0  0  0  0  0  0  0  0  0  0  0
   -3.5210   45.8389  -37.3801 O   0  0  0  0  0  0  0  0  0  0  0  0
   -3.6773   47.0773  -38.5808 N   0  0  0  0  0  0  0  0  0  0  0  0
   -3.4800   47.4207  -39.4821 H   0  0  0  0  0  0  0  0  0  0  0  0
   -4.2256   47.6097  -37.9603 H   0  0  0  0  0  0  0  0  0  0  0  0
   -3.4272   41.7303  -39.2650 C   0  0  0  0  0  0  0  0  0  0  0  0
   -3.9430   41.6662  -38.4107 C   0  0  0  0  0  0  0  0  0  0  0  0
   -3.6435   41.0392  -37.6916 C   0  0  0  0  0  0  0  0  0  0  0  0
   -2.6838   40.7635  -37.6364 O   0  0  0  0  0  0  0  0  0  0  0  0
   -4.3037   40.6877  -37.0278 N   0  0  0  0  0  0  0  0  0  0  0  0
   -5.2485   40.9590  -37.0822 H   0  0  0  0  0  0  0  0  0  0  0  0
   -4.0088   40.0703  -36.3198 H   0  0  0  0  0  0  0  0  0  0  0  0
   -2.8592   37.7963  -42.3343 C   0  0  0  0  0  0  0  0  0  0  0  0
   -1.8874   37.7658  -42.1006 O   0  0  0  0  0  0  0  0  0  0  0  0
   -1.5747   37.1680  -41.4035 H   0  0  0  0  0  0  0  0  0  0  0  0
   -2.3646   37.8055  -46.1094 C   0  0  0  0  0  0  0  0  0  0  0  0
   -1.5682   38.2672  -46.4999 C   0  0  0  0  0  0  0  0  0  0  0  0
   -0.7489   38.5492  -46.0007 C   0  0  0  0  0  0  0  0  0  0  0  0
   -0.1254   38.9842  -46.6505 N   0  0  0  0  0  0  0  0  0  0  0  0
   -0.5596   38.9710  -47.5513 C   0  0  0  0  0  0  0  0  0  0  0  0
   -1.4512   38.5279  -47.4581 N   0  0  0  0  0  0  0  0  0  0  0  0
   -2.0999   38.3751  -48.1828 H   0  0  0  0  0  0  0  0  0  0  0  0
 95 96  1  0  0  0
 95 97  1  0  0  0
 95 98  1  0  0  0
 96 91  1  0  0  0
 96 99  1  0  0  0
 91 92  2  0  0  0
 91 93  1  0  0  0
 93 90  1  0  0  0
 93 94  1  0  0  0
 90103  1  0  0  0
 90 86  1  0  0  0
103104  1  0  0  0
104105  1  0  0  0
105106  2  0  0  0
105107  1  0  0  0
107108  1  0  0  0
107109  1  0  0  0
 86 87  2  0  0  0
 86 88  1  0  0  0
 88 85  1  0  0  0
 88 89  1  0  0  0
 85110  1  0  0  0
 85 81  1  0  0  0
110111  1  0  0  0
111112  1  0  0  0
112113  2  0  0  0
112114  1  0  0  0
114115  1  0  0  0
114116  1  0  0  0
 81 82  2  0  0  0
 81 83  1  0  0  0
 83 79  1  0  0  0
 83 84  1  0  0  0
 79 80  1  0  0  0
 79 75  1  0  0  0
 75 76  2  0  0  0
 75 77  1  0  0  0
 77 74  1  0  0  0
 77 78  1  0  0  0
 74117  1  0  0  0
 74 70  1  0  0  0
117118  1  0  0  0
118119  1  0  0  0
 70 71  2  0  0  0
 70 72  1  0  0  0
 72 69  1  0  0  0
 72 73  1  0  0  0
 69120  1  0  0  0
 69 65  1  0  0  0
120121  1  0  0  0
121125  1  0  0  0
121122  2  0  0  0
122123  1  0  0  0
123124  2  0  0  0
124125  1  0  0  0
125126  1  0  0  0
 65 66  2  0  0  0
 65 67  1  0  0  0
 67  1  1  0  0  0
 67 68  1  0  0  0
  1  2  1  0  0  0
  1 10  1  0  0  0
  2  8  2  0  0  0
  2  3  1  0  0  0
  3  4  2  0  0  0
  4  5  1  0  0  0
  5  6  1  0  0  0
  5  7  2  0  0  0
  6  9  1  0  0  0
  7  8  1  0  0  0
 10 11  2  0  0  0
 10 12  1  0  0  0
 12 14  1  0  0  0
 12 13  1  0  0  0
 14 58  1  0  0  0
 14 15  1  0  0  0
 58 59  1  0  0  0
 59 60  1  0  0  0
 60 61  1  0  0  0
 61 62  1  0  0  0
 62 63  1  0  0  0
 62 64  1  0  0  0
 15 16  2  0  0  0
 15 17  1  0  0  0
 17 19  1  0  0  0
 17 18  1  0  0  0
 19 51  1  0  0  0
 19 20  1  0  0  0
 51 52  1  0  0  0
 52 53  1  0  0  0
 53 54  2  0  0  0
 53 55  1  0  0  0
 55 56  1  0  0  0
 55 57  1  0  0  0
 20 21  2  0  0  0
 20 22  1  0  0  0
 22 24  1  0  0  0
 22 23  1  0  0  0
 24 44  1  0  0  0
 24 25  1  0  0  0
 44 45  1  0  0  0
 45 49  1  0  0  0
 45 46  2  0  0  0
 46 47  1  0  0  0
 47 48  2  0  0  0
 48 49  1  0  0  0
 49 50  1  0  0  0
 25 26  2  0  0  0
 25 27  1  0  0  0
 27 29  1  0  0  0
 27 28  1  0  0  0
 29 41  1  0  0  0
 29 30  1  0  0  0
 41 42  1  0  0  0
 42 43  1  0  0  0
 30 31  2  0  0  0
 30 32  1  0  0  0
 32 36  1  0  0  0
 32 33  1  0  0  0
 33 34  1  0  0  0
 34 35  1  0  0  0
 35 36  1  0  0  0
 36 37  1  0  0  0
 37 38  1  0  0  0
 37 39  2  0  0  0
 38 40  1  0  0  0
 99100  1  0  0  0
 99101  1  0  0  0
100102  1  0  0  0
M  END
> <minimizedAffinity>
-4.19158

$$$$



126129  0  0  0  0  0  0  0  0999 V2000
    1.7453   45.1111  -32.5708 C   0  0  0  0  0  0  0  0  0  0  0  0
    1.5267   45.9223  -33.1132 C   0  0  0  0  0  0  0  0  0  0  0  0
    0.6127   46.3251  -33.0642 C   0  0  0  0  0  0  0  0  0  0  0  0
    0.3941   47.1364  -33.6066 C   0  0  0  0  0  0  0  0  0  0  0  0
    1.0895   47.5448  -34.1979 C   0  0  0  0  0  0  0  0  0  0  0  0
    0.8709   48.3560  -34.7402 O   0  0  0  0  0  0  0  0  0  0  0  0
    2.0035   47.1420  -34.2468 C   0  0  0  0  0  0  0  0  0  0  0  0
    2.2221   46.3308  -33.7045 C   0  0  0  0  0  0  0  0  0  0  0  0
    0.0145   48.7334  -34.6944 H   0  0  0  0  0  0  0  0  0  0  0  0
    1.1616   44.3010  -32.6255 C   0  0  0  0  0  0  0  0  0  0  0  0
    1.1405   43.7556  -33.4635 O   0  0  0  0  0  0  0  0  0  0  0  0
    0.5991   44.0362  -31.8423 N   0  0  0  0  0  0  0  0  0  0  0  0
    0.6200   44.5731  -31.0173 H   0  0  0  0  0  0  0  0  0  0  0  0
    0.0154   43.2260  -31.8969 C   0  0  0  0  0  0  0  0  0  0  0  0
   -0.9721   43.3283  -32.0166 C   0  0  0  0  0  0  0  0  0  0  0  0
   -1.5394   43.6335  -31.2518 O   0  0  0  0  0  0  0  0  0  0  0  0
   -1.3922   43.1255  -32.9011 N   0  0  0  0  0  0  0  0  0  0  0  0
   -0.8336   42.8251  -33.6541 H   0  0  0  0  0  0  0  0  0  0  0  0
   -2.3797   43.2279  -33.0208 C   0  0  0  0  0  0  0  0  0  0  0  0
   -2.9639   42.4178  -33.0708 C   0  0  0  0  0  0  0  0  0  0  0  0
   -3.8789   42.4355  -32.6678 O   0  0  0  0  0  0  0  0  0  0  0  0
   -2.6331   41.5899  -33.5240 N   0  0  0  0  0  0  0  0  0  0  0  0
   -1.7322   41.5725  -33.9208 H   0  0  0  0  0  0  0  0  0  0  0  0
   -3.2172   40.7799  -33.5740 C   0  0  0  0  0  0  0  0  0  0  0  0
   -3.0720   40.0189  -32.9417 C   0  0  0  0  0  0  0  0  0  0  0  0
   -2.1609   39.6190  -32.8416 O   0  0  0  0  0  0  0  0  0  0  0  0
   -3.8377   39.6579  -32.4095 N   0  0  0  0  0  0  0  0  0  0  0  0
   -4.7346   40.0516  -32.5081 H   0  0  0  0  0  0  0  0  0  0  0  0
   -3.6925   38.8969  -31.7772 C   0  0  0  0  0  0  0  0  0  0  0  0
   -3.4493   39.0780  -30.8243 C   0  0  0  0  0  0  0  0  0  0  0  0
   -2.5480   38.8154  -30.4797 O   0  0  0  0  0  0  0  0  0  0  0  0
   -4.1074   39.5218  -30.2160 N   0  0  0  0  0  0  0  0  0  0  0  0
   -5.0287   39.8207  -30.4645 C   0  0  0  0  0  0  0  0  0  0  0  0
   -5.4503   40.2282  -29.6545 C   0  0  0  0  0  0  0  0  0  0  0  0
   -4.7896   40.1811  -28.9054 C   0  0  0  0  0  0  0  0  0  0  0  0
   -3.9596   39.7446  -29.2524 C   0  0  0  0  0  0  0  0  0  0  0  0
   -3.1279   39.5627  -28.7279 C   0  0  0  0  0  0  0  0  0  0  0  0
   -2.3710   40.2160  -28.7484 O   0  0  0  0  0  0  0  0  0  0  0  0
   -3.0529   38.7275  -28.1830 O   0  0  0  0  0  0  0  0  0  0  0  0
   -2.4412   40.9985  -29.2589 H   0  0  0  0  0  0  0  0  0  0  0  0
   -3.7905   37.9547  -32.0978 C   0  0  0  0  0  0  0  0  0  0  0  0
   -4.6902   37.6074  -32.3620 S   0  0  0  0  0  0  0  0  0  0  0  0
   -5.7807   38.4164  -32.2854 H   0  0  0  0  0  0  0  0  0  0  0  0
   -3.9466   40.7308  -34.2563 C   0  0  0  0  0  0  0  0  0  0  0  0
   -3.7473   40.3989  -35.1783 C   0  0  0  0  0  0  0  0  0  0  0  0
   -4.2842   39.7286  -35.6907 C   0  0  0  0  0  0  0  0  0  0  0  0
   -3.8449   39.5945  -36.5788 N   0  0  0  0  0  0  0  0  0  0  0  0
   -3.0363   40.1819  -36.6155 C   0  0  0  0  0  0  0  0  0  0  0  0
   -2.9761   40.6790  -35.7499 N   0  0  0  0  0  0  0  0  0  0  0  0
   -2.2797   41.3300  -35.5037 H   0  0  0  0  0  0  0  0  0  0  0  0
   -2.7831   44.1403  -33.0905 C   0  0  0  0  0  0  0  0  0  0  0  0
   -2.6947   44.6626  -33.9386 C   0  0  0  0  0  0  0  0  0  0  0  0
   -3.0155   45.6088  -33.9788 C   0  0  0  0  0  0  0  0  0  0  0  0
   -2.9735   46.1862  -33.1633 O   0  0  0  0  0  0  0  0  0  0  0  0
   -3.3785   45.9778  -34.8345 N   0  0  0  0  0  0  0  0  0  0  0  0
   -3.4199   45.4094  -35.6373 H   0  0  0  0  0  0  0  0  0  0  0  0
   -3.6944   46.9094  -34.8741 H   0  0  0  0  0  0  0  0  0  0  0  0
    0.4193   42.3135  -31.8319 C   0  0  0  0  0  0  0  0  0  0  0  0
    0.4602   41.8466  -30.9485 C   0  0  0  0  0  0  0  0  0  0  0  0
    1.0010   41.0114  -30.8489 C   0  0  0  0  0  0  0  0  0  0  0  0
    0.7117   40.3021  -30.2061 C   0  0  0  0  0  0  0  0  0  0  0  0
    0.1697   39.5260  -30.5285 N   0  0  0  0  0  0  0  0  0  0  0  0
   -0.0882   39.4579  -31.5131 H   0  0  0  0  0  0  0  0  0  0  0  0
   -0.1254   38.8026  -29.8728 H   0  0  0  0  0  0  0  0  0  0  0  0
    2.5044   45.5517  -31.0777 C   0  0  0  0  0  0  0  0  0  0  0  0
    1.6591   45.9944  -30.7785 O   0  0  0  0  0  0  0  0  0  0  0  0
    2.5475   45.1101  -31.9738 N   0  0  0  0  0  0  0  0  0  0  0  0
    3.3796   44.6742  -32.2683 H   0  0  0  0  0  0  0  0  0  0  0  0
    3.3066   45.5506  -30.4806 C   0  0  0  0  0  0  0  0  0  0  0  0
    3.2453   44.5197  -29.0902 C   0  0  0  0  0  0  0  0  0  0  0  0
    3.4065   43.7235  -29.6733 O   0  0  0  0  0  0  0  0  0  0  0  0
    3.1954   45.4332  -29.4938 N   0  0  0  0  0  0  0  0  0  0  0  0
    3.0366   46.2171  -28.9197 H   0  0  0  0  0  0  0  0  0  0  0  0
    3.1340   44.4023  -28.1033 C   0  0  0  0  0  0  0  0  0  0  0  0
    1.5888   44.1960  -27.3486 C   0  0  0  0  0  0  0  0  0  0  0  0
    1.6365   43.2119  -27.5200 O   0  0  0  0  0  0  0  0  0  0  0  0
    2.3375   44.7912  -27.6402 N   0  0  0  0  0  0  0  0  0  0  0  0
    2.2906   45.7599  -27.4715 H   0  0  0  0  0  0  0  0  0  0  0  0
    0.7923   44.5848  -26.8854 C   0  0  0  0  0  0  0  0  0  0  0  0
    0.8783   44.9365  -25.9533 C   0  0  0  0  0  0  0  0  0  0  0  0
   -0.4759   45.5039  -27.6248 C   0  0  0  0  0  0  0  0  0  0  0  0
    0.0207   46.3489  -27.4261 O   0  0  0  0  0  0  0  0  0  0  0  0
   -0.0900   44.6219  -27.3545 N   0  0  0  0  0  0  0  0  0  0  0  0
   -0.5789   43.7900  -27.5501 H   0  0  0  0  0  0  0  0  0  0  0  0
   -1.3583   45.5411  -28.0939 C   0  0  0  0  0  0  0  0  0  0  0  0
   -2.7131   44.7141  -27.4005 C   0  0  0  0  0  0  0  0  0  0  0  0
   -2.8425   45.4670  -26.7554 O   0  0  0  0  0  0  0  0  0  0  0  0
   -1.9710   44.7511  -28.0698 N   0  0  0  0  0  0  0  0  0  0  0  0
   -1.8435   44.0098  -28.7049 H   0  0  0  0  0  0  0  0  0  0  0  0
   -3.3257   43.9241  -27.3764 C   0  0  0  0  0  0  0  0  0  0  0  0
   -2.8828   42.5965  -26.3560 C   0  0  0  0  0  0  0  0  0  0  0  0
   -2.2071   42.3024  -27.0319 O   0  0  0  0  0  0  0  0  0  0  0  0
   -3.4422   43.4073  -26.5283 N   0  0  0  0  0  0  0  0  0  0  0  0
   -4.1075   43.6969  -25.8629 H   0  0  0  0  0  0  0  0  0  0  0  0
   -3.6316   41.3056  -25.4768 N   0  0  0  0  0  0  0  0  0  0  0  0
   -2.9993   42.0797  -25.5078 C   0  0  0  0  0  0  0  0  0  0  0  0
   -3.7504   40.7785  -24.6117 H   0  0  0  0  0  0  0  0  0  0  0  0
   -4.1577   41.0431  -26.3103 H   0  0  0  0  0  0  0  0  0  0  0  0
   -2.4836   42.3370  -24.6907 C   0  0  0  0  0  0  0  0  0  0  0  0
   -1.4955   42.4800  -24.7475 O   0  0  0  0  0  0  0  0  0  0  0  0
   -2.9559   42.4515  -23.8167 C   0  0  0  0  0  0  0  0  0  0  0  0
   -1.0373   42.3690  -25.5953 H   0  0  0  0  0  0  0  0  0  0  0  0
   -3.8219   43.6509  -28.2005 C   0  0  0  0  0  0  0  0  0  0  0  0
   -4.6367   44.1565  -28.4843 C   0  0  0  0  0  0  0  0  0  0  0  0
   -5.0886   43.9326  -29.3478 C   0  0  0  0  0  0  0  0  0  0  0  0
   -5.9794   43.4783  -29.3429 O   0  0  0  0  0  0  0  0  0  0  0  0
   -4.6497   44.1630  -30.2163 N   0  0  0  0  0  0  0  0  0  0  0  0
   -3.7727   44.6103  -30.2211 H   0  0  0  0  0  0  0  0  0  0  0  0
   -5.0946   43.9426  -31.0664 H   0  0  0  0  0  0  0  0  0  0  0  0
   -1.6281   46.3681  -28.5869 C   0  0  0  0  0  0  0  0  0  0  0  0
   -1.5995   46.3861  -29.5863 C   0  0  0  0  0  0  0  0  0  0  0  0
   -2.1722   47.0318  -30.0914 C   0  0  0  0  0  0  0  0  0  0  0  0
   -3.1655   47.0148  -29.9768 O   0  0  0  0  0  0  0  0  0  0  0  0
   -1.7517   47.6945  -30.7111 N   0  0  0  0  0  0  0  0  0  0  0  0
   -0.7738   47.7113  -30.8239 H   0  0  0  0  0  0  0  0  0  0  0  0
   -2.3156   48.3302  -31.2083 H   0  0  0  0  0  0  0  0  0  0  0  0
    3.8192   43.8961  -27.5796 C   0  0  0  0  0  0  0  0  0  0  0  0
    4.6557   44.3533  -27.2775 O   0  0  0  0  0  0  0  0  0  0  0  0
    5.3203   43.8622  -26.7695 H   0  0  0  0  0  0  0  0  0  0  0  0
    4.2202   45.6669  -30.8705 C   0  0  0  0  0  0  0  0  0  0  0  0
    4.7344   46.5070  -30.6976 C   0  0  0  0  0  0  0  0  0  0  0  0
    5.5755   46.5816  -30.1621 C   0  0  0  0  0  0  0  0  0  0  0  0
    5.8588   47.5407  -30.1634 N   0  0  0  0  0  0  0  0  0  0  0  0
    5.1925   48.0588  -30.6998 C   0  0  0  0  0  0  0  0  0  0  0  0
    4.4976   47.4199  -31.0300 N   0  0  0  0  0  0  0  0  0  0  0  0
    3.7174   47.6495  -31.5848 H   0  0  0  0  0  0  0  0  0  0  0  0
 95 96  1  0  0  0
 95 97  1  0  0  0
 95 98  1  0  0  0
 96 91  1  0  0  0
 96 99  1  0  0  0
 91 92  2  0  0  0
 91 93  1  0  0  0
 93 90  1  0  0  0
 93 94  1  0  0  0
 90103  1  0  0  0
 90 86  1  0  0  0
103104  1  0  0  0
104105  1  0  0  0
105106  2  0  0  0
105107  1  0  0  0
107108  1  0  0  0
107109  1  0  0  0
 86 87  2  0  0  0
 86 88  1  0  0  0
 88 85  1  0  0  0
 88 89  1  0  0  0
 85110  1  0  0  0
 85 81  1  0  0  0
110111  1  0  0  0
111112  1  0  0  0
112113  2  0  0  0
112114  1  0  0  0
114115  1  0  0  0
114116  1  0  0  0
 81 82  2  0  0  0
 81 83  1  0  0  0
 83 79  1  0  0  0
 83 84  1  0  0  0
 79 80  1  0  0  0
 79 75  1  0  0  0
 75 76  2  0  0  0
 75 77  1  0  0  0
 77 74  1  0  0  0
 77 78  1  0  0  0
 74117  1  0  0  0
 74 70  1  0  0  0
117118  1  0  0  0
118119  1  0  0  0
 70 71  2  0  0  0
 70 72  1  0  0  0
 72 69  1  0  0  0
 72 73  1  0  0  0
 69120  1  0  0  0
 69 65  1  0  0  0
120121  1  0  0  0
121125  1  0  0  0
121122  2  0  0  0
122123  1  0  0  0
123124  2  0  0  0
124125  1  0  0  0
125126  1  0  0  0
 65 66  2  0  0  0
 65 67  1  0  0  0
 67  1  1  0  0  0
 67 68  1  0  0  0
  1  2  1  0  0  0
  1 10  1  0  0  0
  2  8  2  0  0  0
  2  3  1  0  0  0
  3  4  2  0  0  0
  4  5  1  0  0  0
  5  6  1  0  0  0
  5  7  2  0  0  0
  6  9  1  0  0  0
  7  8  1  0  0  0
 10 11  2  0  0  0
 10 12  1  0  0  0
 12 14  1  0  0  0
 12 13  1  0  0  0
 14 58  1  0  0  0
 14 15  1  0  0  0
 58 59  1  0  0  0
 59 60  1  0  0  0
 60 61  1  0  0  0
 61 62  1  0  0  0
 62 63  1  0  0  0
 62 64  1  0  0  0
 15 16  2  0  0  0
 15 17  1  0  0  0
 17 19  1  0  0  0
 17 18  1  0  0  0
 19 51  1  0  0  0
 19 20  1  0  0  0
 51 52  1  0  0  0
 52 53  1  0  0  0
 53 54  2  0  0  0
 53 55  1  0  0  0
 55 56  1  0  0  0
 55 57  1  0  0  0
 20 21  2  0  0  0
 20 22  1  0  0  0
 22 24  1  0  0  0
 22 23  1  0  0  0
 24 44  1  0  0  0
 24 25  1  0  0  0
 44 45  1  0  0  0
 45 49  1  0  0  0
 45 46  2  0  0  0
 46 47  1  0  0  0
 47 48  2  0  0  0
 48 49  1  0  0  0
 49 50  1  0  0  0
 25 26  2  0  0  0
 25 27  1  0  0  0
 27 29  1  0  0  0
 27 28  1  0  0  0
 29 41  1  0  0  0
 29 30  1  0  0  0
 41 42  1  0  0  0
 42 43  1  0  0  0
 30 31  2  0  0  0
 30 32  1  0  0  0
 32 36  1  0  0  0
 32 33  1  0  0  0
 33 34  1  0  0  0
 34 35  1  0  0  0
 35 36  1  0  0  0
 36 37  1  0  0  0
 37 38  1  0  0  0
 37 39  2  0  0  0
 38 40  1  0  0  0
 99100  1  0  0  0
 99101  1  0  0  0
100102  1  0  0  0
M  END
> <minimizedAffinity>
-4.09977

$$$$



126129  0  0  0  0  0  0  0  0999 V2000
   -3.8591   38.5510  -45.5460 C   0  0  0  0  0  0  0  0  0  0  0  0
   -3.3355   38.3714  -44.7132 C   0  0  0  0  0  0  0  0  0  0  0  0
   -2.6126   37.6805  -44.7164 C   0  0  0  0  0  0  0  0  0  0  0  0
   -2.0890   37.5009  -43.8835 C   0  0  0  0  0  0  0  0  0  0  0  0
   -2.2883   38.0122  -43.0475 C   0  0  0  0  0  0  0  0  0  0  0  0
   -1.7647   37.8326  -42.2147 O   0  0  0  0  0  0  0  0  0  0  0  0
   -3.0113   38.7031  -43.0444 C   0  0  0  0  0  0  0  0  0  0  0  0
   -3.5349   38.8827  -43.8772 C   0  0  0  0  0  0  0  0  0  0  0  0
   -1.0873   37.1852  -42.2177 H   0  0  0  0  0  0  0  0  0  0  0  0
   -3.3881   38.8339  -46.3815 C   0  0  0  0  0  0  0  0  0  0  0  0
   -2.5853   39.4276  -46.3263 O   0  0  0  0  0  0  0  0  0  0  0  0
   -3.7198   38.5231  -47.2722 N   0  0  0  0  0  0  0  0  0  0  0  0
   -4.5102   37.9386  -47.3265 H   0  0  0  0  0  0  0  0  0  0  0  0
   -3.2488   38.8060  -48.1078 C   0  0  0  0  0  0  0  0  0  0  0  0
   -3.5423   39.6298  -48.5927 C   0  0  0  0  0  0  0  0  0  0  0  0
   -2.8852   40.3596  -48.7815 O   0  0  0  0  0  0  0  0  0  0  0  0
   -4.4928   39.7237  -48.8889 N   0  0  0  0  0  0  0  0  0  0  0  0
   -5.1395   39.0052  -48.7030 H   0  0  0  0  0  0  0  0  0  0  0  0
   -4.7862   40.5475  -49.3739 C   0  0  0  0  0  0  0  0  0  0  0  0
   -4.7445   40.5814  -50.3724 C   0  0  0  0  0  0  0  0  0  0  0  0
   -4.2236   41.3041  -50.8268 O   0  0  0  0  0  0  0  0  0  0  0  0
   -5.2236   39.8927  -50.9166 N   0  0  0  0  0  0  0  0  0  0  0  0
   -5.7364   39.1812  -50.4693 H   0  0  0  0  0  0  0  0  0  0  0  0
   -5.1819   39.9266  -51.9152 C   0  0  0  0  0  0  0  0  0  0  0  0
   -5.8498   40.4683  -52.4254 C   0  0  0  0  0  0  0  0  0  0  0  0
   -5.5439   41.0870  -53.1489 O   0  0  0  0  0  0  0  0  0  0  0  0
   -6.8238   40.3913  -52.2121 N   0  0  0  0  0  0  0  0  0  0  0  0
   -7.1249   39.7821  -51.4997 H   0  0  0  0  0  0  0  0  0  0  0  0
   -7.4918   40.9330  -52.7223 C   0  0  0  0  0  0  0  0  0  0  0  0
   -7.8874   41.7546  -52.3119 C   0  0  0  0  0  0  0  0  0  0  0  0
   -7.6977   42.6527  -52.7086 O   0  0  0  0  0  0  0  0  0  0  0  0
   -8.4730   41.6780  -51.5048 N   0  0  0  0  0  0  0  0  0  0  0  0
   -8.7209   40.8298  -51.0369 C   0  0  0  0  0  0  0  0  0  0  0  0
   -9.3144   41.0639  -50.2669 C   0  0  0  0  0  0  0  0  0  0  0  0
   -9.4333   42.0568  -50.2590 C   0  0  0  0  0  0  0  0  0  0  0  0
   -8.9132   42.4363  -51.0241 C   0  0  0  0  0  0  0  0  0  0  0  0
   -8.8454   43.4042  -51.2660 C   0  0  0  0  0  0  0  0  0  0  0  0
   -8.1145   43.9663  -50.8788 O   0  0  0  0  0  0  0  0  0  0  0  0
   -9.5084   43.8101  -51.8951 O   0  0  0  0  0  0  0  0  0  0  0  0
   -7.4933   43.5860  -50.2894 H   0  0  0  0  0  0  0  0  0  0  0  0
   -7.7641   40.6531  -53.6430 C   0  0  0  0  0  0  0  0  0  0  0  0
   -8.3196   39.8317  -53.7720 S   0  0  0  0  0  0  0  0  0  0  0  0
   -8.7048   39.0951  -52.6956 H   0  0  0  0  0  0  0  0  0  0  0  0
   -4.4721   39.4188  -52.4035 C   0  0  0  0  0  0  0  0  0  0  0  0
   -4.6158   38.4570  -52.6360 C   0  0  0  0  0  0  0  0  0  0  0  0
   -4.6136   38.0683  -53.5574 C   0  0  0  0  0  0  0  0  0  0  0  0
   -4.7833   37.0860  -53.4789 N   0  0  0  0  0  0  0  0  0  0  0  0
   -4.8905   36.8674  -52.5089 C   0  0  0  0  0  0  0  0  0  0  0  0
   -4.7869   37.7148  -51.9880 N   0  0  0  0  0  0  0  0  0  0  0  0
   -4.8435   37.8028  -51.0091 H   0  0  0  0  0  0  0  0  0  0  0  0
   -5.1215   41.3374  -48.8603 C   0  0  0  0  0  0  0  0  0  0  0  0
   -5.9702   41.2692  -48.3359 C   0  0  0  0  0  0  0  0  0  0  0  0
   -6.5003   42.0925  -48.1333 C   0  0  0  0  0  0  0  0  0  0  0  0
   -6.3213   42.9386  -48.6356 O   0  0  0  0  0  0  0  0  0  0  0  0
   -7.2094   42.0699  -47.4286 N   0  0  0  0  0  0  0  0  0  0  0  0
   -7.3856   41.2369  -46.9342 H   0  0  0  0  0  0  0  0  0  0  0  0
   -7.7313   42.8805  -47.2292 H   0  0  0  0  0  0  0  0  0  0  0  0
   -2.4842   38.2651  -48.4583 C   0  0  0  0  0  0  0  0  0  0  0  0
   -2.6585   37.4781  -49.0503 C   0  0  0  0  0  0  0  0  0  0  0  0
   -1.8933   36.9821  -49.4607 C   0  0  0  0  0  0  0  0  0  0  0  0
   -2.0657   36.2786  -50.1502 C   0  0  0  0  0  0  0  0  0  0  0  0
   -1.7979   36.4341  -51.1010 N   0  0  0  0  0  0  0  0  0  0  0  0
   -1.3489   37.3104  -51.3676 H   0  0  0  0  0  0  0  0  0  0  0  0
   -1.9737   35.7166  -51.8043 H   0  0  0  0  0  0  0  0  0  0  0  0
   -5.2632   37.5458  -45.6814 C   0  0  0  0  0  0  0  0  0  0  0  0
   -4.6779   36.7472  -45.8222 O   0  0  0  0  0  0  0  0  0  0  0  0
   -4.8538   38.4477  -45.5433 N   0  0  0  0  0  0  0  0  0  0  0  0
   -5.4299   39.2338  -45.4047 H   0  0  0  0  0  0  0  0  0  0  0  0
   -6.2578   37.4425  -45.6787 C   0  0  0  0  0  0  0  0  0  0  0  0
   -7.0798   37.3741  -44.1557 C   0  0  0  0  0  0  0  0  0  0  0  0
   -6.8079   36.4174  -44.0519 O   0  0  0  0  0  0  0  0  0  0  0  0
   -6.8047   37.8867  -44.9691 N   0  0  0  0  0  0  0  0  0  0  0  0
   -7.0724   38.8286  -45.0713 H   0  0  0  0  0  0  0  0  0  0  0  0
   -7.6267   37.8183  -43.4461 C   0  0  0  0  0  0  0  0  0  0  0  0
   -7.1172   38.5689  -41.9706 C   0  0  0  0  0  0  0  0  0  0  0  0
   -7.3338   37.7310  -41.4696 O   0  0  0  0  0  0  0  0  0  0  0  0
   -7.2637   38.6125  -42.9588 N   0  0  0  0  0  0  0  0  0  0  0  0
   -7.0505   39.4374  -43.4521 H   0  0  0  0  0  0  0  0  0  0  0  0
   -6.7542   39.3632  -41.4834 C   0  0  0  0  0  0  0  0  0  0  0  0
   -7.0285   40.2853  -41.7561 C   0  0  0  0  0  0  0  0  0  0  0  0
   -5.3060   39.8154  -40.6480 C   0  0  0  0  0  0  0  0  0  0  0  0
   -5.1322   40.5234  -41.3325 O   0  0  0  0  0  0  0  0  0  0  0  0
   -6.1170   39.2353  -40.7234 N   0  0  0  0  0  0  0  0  0  0  0  0
   -6.2880   38.5383  -40.0495 H   0  0  0  0  0  0  0  0  0  0  0  0
   -4.6686   39.6875  -39.8880 C   0  0  0  0  0  0  0  0  0  0  0  0
   -4.2994   38.1219  -39.2459 C   0  0  0  0  0  0  0  0  0  0  0  0
   -3.6025   37.9967  -39.9520 O   0  0  0  0  0  0  0  0  0  0  0  0
   -4.8324   38.9673  -39.2139 N   0  0  0  0  0  0  0  0  0  0  0  0
   -5.5185   39.0906  -38.5188 H   0  0  0  0  0  0  0  0  0  0  0  0
   -4.4632   37.4017  -38.5718 C   0  0  0  0  0  0  0  0  0  0  0  0
   -5.2900   35.9434  -39.0074 C   0  0  0  0  0  0  0  0  0  0  0  0
   -6.1686   36.4056  -38.8873 O   0  0  0  0  0  0  0  0  0  0  0  0
   -4.4373   36.4414  -38.8497 N   0  0  0  0  0  0  0  0  0  0  0  0
   -3.5723   35.9864  -38.9680 H   0  0  0  0  0  0  0  0  0  0  0  0
   -4.6857   34.3347  -38.7902 N   0  0  0  0  0  0  0  0  0  0  0  0
   -5.2641   34.9831  -39.2854 C   0  0  0  0  0  0  0  0  0  0  0  0
   -4.6592   33.3553  -39.0736 H   0  0  0  0  0  0  0  0  0  0  0  0
   -4.1222   34.6529  -38.0017 H   0  0  0  0  0  0  0  0  0  0  0  0
   -5.8165   34.6712  -40.0584 C   0  0  0  0  0  0  0  0  0  0  0  0
   -5.7210   35.1115  -40.9511 O   0  0  0  0  0  0  0  0  0  0  0  0
   -6.4643   33.9189  -39.9386 C   0  0  0  0  0  0  0  0  0  0  0  0
   -5.0925   35.8412  -41.0672 H   0  0  0  0  0  0  0  0  0  0  0  0
   -4.6529   37.6417  -37.6198 C   0  0  0  0  0  0  0  0  0  0  0  0
   -3.9261   37.5844  -36.9354 C   0  0  0  0  0  0  0  0  0  0  0  0
   -4.0786   37.9395  -36.0130 C   0  0  0  0  0  0  0  0  0  0  0  0
   -4.6895   37.4563  -35.3859 O   0  0  0  0  0  0  0  0  0  0  0  0
   -3.6203   38.7779  -35.7178 N   0  0  0  0  0  0  0  0  0  0  0  0
   -3.0189   39.2536  -36.3353 H   0  0  0  0  0  0  0  0  0  0  0  0
   -3.7705   39.1274  -34.8098 H   0  0  0  0  0  0  0  0  0  0  0  0
   -3.8675   40.2799  -39.8022 C   0  0  0  0  0  0  0  0  0  0  0  0
   -3.8303   40.9686  -39.0782 C   0  0  0  0  0  0  0  0  0  0  0  0
   -2.9493   41.2374  -38.6887 C   0  0  0  0  0  0  0  0  0  0  0  0
   -2.6502   40.8520  -37.8158 O   0  0  0  0  0  0  0  0  0  0  0  0
   -2.3675   41.8915  -39.1721 N   0  0  0  0  0  0  0  0  0  0  0  0
   -2.6620   42.2709  -40.0315 H   0  0  0  0  0  0  0  0  0  0  0  0
   -1.5002   42.1561  -38.7886 H   0  0  0  0  0  0  0  0  0  0  0  0
   -8.5366   37.4682  -43.2236 C   0  0  0  0  0  0  0  0  0  0  0  0
   -9.3270   37.7481  -43.7685 O   0  0  0  0  0  0  0  0  0  0  0  0
  -10.2096   37.4084  -43.5527 H   0  0  0  0  0  0  0  0  0  0  0  0
   -6.7056   36.8950  -46.3858 C   0  0  0  0  0  0  0  0  0  0  0  0
   -6.9705   37.3176  -47.2524 C   0  0  0  0  0  0  0  0  0  0  0  0
   -7.5804   38.1025  -47.3614 C   0  0  0  0  0  0  0  0  0  0  0  0
   -7.6590   38.2996  -48.3387 N   0  0  0  0  0  0  0  0  0  0  0  0
   -7.0976   37.6363  -48.8337 C   0  0  0  0  0  0  0  0  0  0  0  0
   -6.6722   37.0295  -48.1623 N   0  0  0  0  0  0  0  0  0  0  0  0
   -6.0660   36.2799  -48.3621 H   0  0  0  0  0  0  0  0  0  0  0  0
 95 96  1  0  0  0
 95 97  1  0  0  0
 95 98  1  0  0  0
 96 91  1  0  0  0
 96 99  1  0  0  0
 91 92  2  0  0  0
 91 93  1  0  0  0
 93 90  1  0  0  0
 93 94  1  0  0  0
 90103  1  0  0  0
 90 86  1  0  0  0
103104  1  0  0  0
104105  1  0  0  0
105106  2  0  0  0
105107  1  0  0  0
107108  1  0  0  0
107109  1  0  0  0
 86 87  2  0  0  0
 86 88  1  0  0  0
 88 85  1  0  0  0
 88 89  1  0  0  0
 85110  1  0  0  0
 85 81  1  0  0  0
110111  1  0  0  0
111112  1  0  0  0
112113  2  0  0  0
112114  1  0  0  0
114115  1  0  0  0
114116  1  0  0  0
 81 82  2  0  0  0
 81 83  1  0  0  0
 83 79  1  0  0  0
 83 84  1  0  0  0
 79 80  1  0  0  0
 79 75  1  0  0  0
 75 76  2  0  0  0
 75 77  1  0  0  0
 77 74  1  0  0  0
 77 78  1  0  0  0
 74117  1  0  0  0
 74 70  1  0  0  0
117118  1  0  0  0
118119  1  0  0  0
 70 71  2  0  0  0
 70 72  1  0  0  0
 72 69  1  0  0  0
 72 73  1  0  0  0
 69120  1  0  0  0
 69 65  1  0  0  0
120121  1  0  0  0
121125  1  0  0  0
121122  2  0  0  0
122123  1  0  0  0
123124  2  0  0  0
124125  1  0  0  0
125126  1  0  0  0
 65 66  2  0  0  0
 65 67  1  0  0  0
 67  1  1  0  0  0
 67 68  1  0  0  0
  1  2  1  0  0  0
  1 10  1  0  0  0
  2  8  2  0  0  0
  2  3  1  0  0  0
  3  4  2  0  0  0
  4  5  1  0  0  0
  5  6  1  0  0  0
  5  7  2  0  0  0
  6  9  1  0  0  0
  7  8  1  0  0  0
 10 11  2  0  0  0
 10 12  1  0  0  0
 12 14  1  0  0  0
 12 13  1  0  0  0
 14 58  1  0  0  0
 14 15  1  0  0  0
 58 59  1  0  0  0
 59 60  1  0  0  0
 60 61  1  0  0  0
 61 62  1  0  0  0
 62 63  1  0  0  0
 62 64  1  0  0  0
 15 16  2  0  0  0
 15 17  1  0  0  0
 17 19  1  0  0  0
 17 18  1  0  0  0
 19 51  1  0  0  0
 19 20  1  0  0  0
 51 52  1  0  0  0
 52 53  1  0  0  0
 53 54  2  0  0  0
 53 55  1  0  0  0
 55 56  1  0  0  0
 55 57  1  0  0  0
 20 21  2  0  0  0
 20 22  1  0  0  0
 22 24  1  0  0  0
 22 23  1  0  0  0
 24 44  1  0  0  0
 24 25  1  0  0  0
 44 45  1  0  0  0
 45 49  1  0  0  0
 45 46  2  0  0  0
 46 47  1  0  0  0
 47 48  2  0  0  0
 48 49  1  0  0  0
 49 50  1  0  0  0
 25 26  2  0  0  0
 25 27  1  0  0  0
 27 29  1  0  0  0
 27 28  1  0  0  0
 29 41  1  0  0  0
 29 30  1  0  0  0
 41 42  1  0  0  0
 42 43  1  0  0  0
 30 31  2  0  0  0
 30 32  1  0  0  0
 32 36  1  0  0  0
 32 33  1  0  0  0
 33 34  1  0  0  0
 34 35  1  0  0  0
 35 36  1  0  0  0
 36 37  1  0  0  0
 37 38  1  0  0  0
 37 39  2  0  0  0
 38 40  1  0  0  0
 99100  1  0  0  0
 99101  1  0  0  0
100102  1  0  0  0
M  END
> <minimizedAffinity>
-4.09529

$$$$



126129  0  0  0  0  0  0  0  0999 V2000
   -8.7842   39.7500  -44.3353 C   0  0  0  0  0  0  0  0  0  0  0  0
   -8.8313   40.3303  -45.1484 C   0  0  0  0  0  0  0  0  0  0  0  0
   -8.3083   41.1818  -45.1859 C   0  0  0  0  0  0  0  0  0  0  0  0
   -8.3555   41.7621  -45.9990 C   0  0  0  0  0  0  0  0  0  0  0  0
   -8.9255   41.4909  -46.7745 C   0  0  0  0  0  0  0  0  0  0  0  0
   -8.9726   42.0712  -47.5875 O   0  0  0  0  0  0  0  0  0  0  0  0
   -9.4485   40.6394  -46.7370 C   0  0  0  0  0  0  0  0  0  0  0  0
   -9.4014   40.0591  -45.9240 C   0  0  0  0  0  0  0  0  0  0  0  0
   -8.4826   42.8691  -47.6227 H   0  0  0  0  0  0  0  0  0  0  0  0
   -8.2996   38.8761  -44.3722 C   0  0  0  0  0  0  0  0  0  0  0  0
   -8.3846   38.2909  -45.1787 O   0  0  0  0  0  0  0  0  0  0  0  0
   -7.7301   38.5873  -43.6027 N   0  0  0  0  0  0  0  0  0  0  0  0
   -7.6464   39.1634  -42.8087 H   0  0  0  0  0  0  0  0  0  0  0  0
   -7.2455   37.7133  -43.6396 C   0  0  0  0  0  0  0  0  0  0  0  0
   -6.2764   37.6888  -43.8852 C   0  0  0  0  0  0  0  0  0  0  0  0
   -5.8957   36.8828  -44.3384 O   0  0  0  0  0  0  0  0  0  0  0  0
   -5.6881   38.4703  -43.6776 N   0  0  0  0  0  0  0  0  0  0  0  0
   -6.0630   39.2638  -43.2313 H   0  0  0  0  0  0  0  0  0  0  0  0
   -4.7191   38.4459  -43.9232 C   0  0  0  0  0  0  0  0  0  0  0  0
   -4.4099   38.8586  -44.7799 C   0  0  0  0  0  0  0  0  0  0  0  0
   -4.6757   39.7952  -45.0083 O   0  0  0  0  0  0  0  0  0  0  0  0
   -3.8349   38.3347  -45.4084 N   0  0  0  0  0  0  0  0  0  0  0  0
   -3.5732   37.4126  -45.1837 H   0  0  0  0  0  0  0  0  0  0  0  0
   -3.5257   38.7475  -46.2652 C   0  0  0  0  0  0  0  0  0  0  0  0
   -4.0090   38.5503  -47.1181 C   0  0  0  0  0  0  0  0  0  0  0  0
   -3.8632   37.6783  -47.5854 O   0  0  0  0  0  0  0  0  0  0  0  0
   -4.6381   39.2252  -47.5038 N   0  0  0  0  0  0  0  0  0  0  0  0
   -4.7816   40.0837  -47.0438 H   0  0  0  0  0  0  0  0  0  0  0  0
   -5.1214   39.0281  -48.3568 C   0  0  0  0  0  0  0  0  0  0  0  0
   -4.9896   39.6174  -49.1539 C   0  0  0  0  0  0  0  0  0  0  0  0
   -4.6552   39.2293  -50.0127 O   0  0  0  0  0  0  0  0  0  0  0  0
   -5.1921   40.5947  -49.0921 N   0  0  0  0  0  0  0  0  0  0  0  0
   -5.5289   41.0751  -48.2823 C   0  0  0  0  0  0  0  0  0  0  0  0
   -5.6383   42.0406  -48.5191 C   0  0  0  0  0  0  0  0  0  0  0  0
   -5.3692   42.1567  -49.4751 C   0  0  0  0  0  0  0  0  0  0  0  0
   -5.0934   41.2631  -49.8293 C   0  0  0  0  0  0  0  0  0  0  0  0
   -4.7749   41.0716  -50.7576 C   0  0  0  0  0  0  0  0  0  0  0  0
   -5.4292   40.8075  -51.4662 O   0  0  0  0  0  0  0  0  0  0  0  0
   -3.8020   41.1442  -50.9773 O   0  0  0  0  0  0  0  0  0  0  0  0
   -6.3407   40.7395  -51.2603 H   0  0  0  0  0  0  0  0  0  0  0  0
   -5.7366   38.2416  -48.4126 C   0  0  0  0  0  0  0  0  0  0  0  0
   -6.7067   38.3492  -48.1951 S   0  0  0  0  0  0  0  0  0  0  0  0
   -7.1895   39.5651  -47.8233 H   0  0  0  0  0  0  0  0  0  0  0  0
   -2.7332   39.3573  -46.2690 C   0  0  0  0  0  0  0  0  0  0  0  0
   -1.8099   38.9770  -46.3227 C   0  0  0  0  0  0  0  0  0  0  0  0
   -1.2576   38.6632  -45.5503 C   0  0  0  0  0  0  0  0  0  0  0  0
   -0.3832   38.3360  -45.9084 N   0  0  0  0  0  0  0  0  0  0  0  0
   -0.3949   38.4476  -46.9021 C   0  0  0  0  0  0  0  0  0  0  0  0
   -1.2767   38.8438  -47.1581 N   0  0  0  0  0  0  0  0  0  0  0  0
   -1.5686   39.0640  -48.0722 H   0  0  0  0  0  0  0  0  0  0  0  0
   -4.0592   38.0087  -43.3121 C   0  0  0  0  0  0  0  0  0  0  0  0
   -3.6971   38.5100  -42.5263 C   0  0  0  0  0  0  0  0  0  0  0  0
   -3.0250   38.0786  -41.9245 C   0  0  0  0  0  0  0  0  0  0  0  0
   -3.3199   37.6553  -41.0678 O   0  0  0  0  0  0  0  0  0  0  0  0
   -2.0581   38.0705  -42.1793 N   0  0  0  0  0  0  0  0  0  0  0  0
   -1.7678   38.4874  -43.0227 H   0  0  0  0  0  0  0  0  0  0  0  0
   -1.3964   37.6458  -41.5868 H   0  0  0  0  0  0  0  0  0  0  0  0
   -7.7300   36.8637  -43.4308 C   0  0  0  0  0  0  0  0  0  0  0  0
   -7.8367   36.5694  -42.4810 C   0  0  0  0  0  0  0  0  0  0  0  0
   -8.2404   35.6778  -42.2762 C   0  0  0  0  0  0  0  0  0  0  0  0
   -8.2721   35.3481  -41.3327 C   0  0  0  0  0  0  0  0  0  0  0  0
   -7.9587   34.4236  -41.1153 N   0  0  0  0  0  0  0  0  0  0  0  0
   -7.6068   33.8170  -41.8560 H   0  0  0  0  0  0  0  0  0  0  0  0
   -7.9910   34.0873  -40.1529 H   0  0  0  0  0  0  0  0  0  0  0  0
  -10.1595   39.7621  -43.2825 C   0  0  0  0  0  0  0  0  0  0  0  0
  -10.6599   39.1869  -43.9296 O   0  0  0  0  0  0  0  0  0  0  0  0
   -9.2217   40.0437  -43.4854 N   0  0  0  0  0  0  0  0  0  0  0  0
   -8.7290   40.6100  -42.8484 H   0  0  0  0  0  0  0  0  0  0  0  0
  -10.5970   40.0558  -42.4326 C   0  0  0  0  0  0  0  0  0  0  0  0
  -10.6162   41.7724  -42.2025 C   0  0  0  0  0  0  0  0  0  0  0  0
  -11.2984   41.8620  -42.9281 O   0  0  0  0  0  0  0  0  0  0  0  0
  -10.2655   40.8693  -41.9548 N   0  0  0  0  0  0  0  0  0  0  0  0
   -9.5938   40.7810  -41.2404 H   0  0  0  0  0  0  0  0  0  0  0  0
  -10.2847   42.5859  -41.7247 C   0  0  0  0  0  0  0  0  0  0  0  0
   -8.6472   43.0944  -41.4799 C   0  0  0  0  0  0  0  0  0  0  0  0
   -8.6455   42.6560  -40.5812 O   0  0  0  0  0  0  0  0  0  0  0  0
   -9.4669   43.0593  -42.0517 N   0  0  0  0  0  0  0  0  0  0  0  0
   -9.4686   43.4908  -42.9366 H   0  0  0  0  0  0  0  0  0  0  0  0
   -7.8293   43.5678  -41.8069 C   0  0  0  0  0  0  0  0  0  0  0  0
   -7.9186   44.3940  -42.3632 C   0  0  0  0  0  0  0  0  0  0  0  0
   -6.2270   43.8288  -41.2033 C   0  0  0  0  0  0  0  0  0  0  0  0
   -6.4391   44.7952  -41.0582 O   0  0  0  0  0  0  0  0  0  0  0  0
   -6.9222   43.2151  -41.5777 N   0  0  0  0  0  0  0  0  0  0  0  0
   -6.7134   42.2636  -41.7205 H   0  0  0  0  0  0  0  0  0  0  0  0
   -5.3198   43.4761  -40.9740 C   0  0  0  0  0  0  0  0  0  0  0  0
   -5.1743   42.3377  -39.6767 C   0  0  0  0  0  0  0  0  0  0  0  0
   -5.2377   43.0844  -39.0145 O   0  0  0  0  0  0  0  0  0  0  0  0
   -5.2153   42.5336  -40.6564 N   0  0  0  0  0  0  0  0  0  0  0  0
   -5.1529   41.7986  -41.3084 H   0  0  0  0  0  0  0  0  0  0  0  0
   -5.0698   41.3953  -39.3591 C   0  0  0  0  0  0  0  0  0  0  0  0
   -6.3887   40.2943  -39.5791 C   0  0  0  0  0  0  0  0  0  0  0  0
   -6.8517   40.6906  -38.7862 O   0  0  0  0  0  0  0  0  0  0  0  0
   -5.4978   40.6467  -39.8655 N   0  0  0  0  0  0  0  0  0  0  0  0
   -5.0419   40.2566  -40.6461 H   0  0  0  0  0  0  0  0  0  0  0  0
   -7.2962   39.7321  -40.9431 N   0  0  0  0  0  0  0  0  0  0  0  0
   -6.8167   39.5457  -40.0856 C   0  0  0  0  0  0  0  0  0  0  0  0
   -7.7327   38.9686  -41.4597 H   0  0  0  0  0  0  0  0  0  0  0  0
   -7.3489   40.6858  -41.3011 H   0  0  0  0  0  0  0  0  0  0  0  0
   -6.7651   38.6108  -39.7345 C   0  0  0  0  0  0  0  0  0  0  0  0
   -5.9551   38.0529  -39.9152 O   0  0  0  0  0  0  0  0  0  0  0  0
   -7.5235   38.2338  -39.2029 C   0  0  0  0  0  0  0  0  0  0  0  0
   -5.2194   38.4186  -40.4309 H   0  0  0  0  0  0  0  0  0  0  0  0
   -4.5374   41.2014  -38.5352 C   0  0  0  0  0  0  0  0  0  0  0  0
   -3.6851   40.6826  -38.6012 C   0  0  0  0  0  0  0  0  0  0  0  0
   -3.3453   40.1760  -37.8087 C   0  0  0  0  0  0  0  0  0  0  0  0
   -3.5295   39.1967  -37.7248 O   0  0  0  0  0  0  0  0  0  0  0  0
   -2.8215   40.6488  -37.1002 N   0  0  0  0  0  0  0  0  0  0  0  0
   -2.6402   41.6129  -37.1828 H   0  0  0  0  0  0  0  0  0  0  0  0
   -2.4870   40.1501  -36.3200 H   0  0  0  0  0  0  0  0  0  0  0  0
   -4.5171   44.0658  -41.0622 C   0  0  0  0  0  0  0  0  0  0  0  0
   -3.8140   43.8550  -41.7413 C   0  0  0  0  0  0  0  0  0  0  0  0
   -3.0502   44.4848  -41.8823 C   0  0  0  0  0  0  0  0  0  0  0  0
   -3.1217   45.2128  -42.5642 O   0  0  0  0  0  0  0  0  0  0  0  0
   -2.2148   44.3867  -41.3414 N   0  0  0  0  0  0  0  0  0  0  0  0
   -2.1444   43.6700  -40.6700 H   0  0  0  0  0  0  0  0  0  0  0  0
   -1.4628   45.0068  -41.4802 H   0  0  0  0  0  0  0  0  0  0  0  0
  -10.7711   42.9259  -40.9199 C   0  0  0  0  0  0  0  0  0  0  0  0
  -11.4216   43.6800  -41.0104 O   0  0  0  0  0  0  0  0  0  0  0  0
  -11.8934   44.0099  -40.2296 H   0  0  0  0  0  0  0  0  0  0  0  0
  -11.3660   39.5359  -42.0605 C   0  0  0  0  0  0  0  0  0  0  0  0
  -11.2347   38.9546  -41.2575 C   0  0  0  0  0  0  0  0  0  0  0  0
  -11.4266   39.2094  -40.3098 C   0  0  0  0  0  0  0  0  0  0  0  0
  -11.1989   38.4287  -39.7277 N   0  0  0  0  0  0  0  0  0  0  0  0
  -10.8664   37.6914  -40.3158 C   0  0  0  0  0  0  0  0  0  0  0  0
  -10.8885   38.0165  -41.2613 N   0  0  0  0  0  0  0  0  0  0  0  0
  -10.6171   37.5030  -42.0562 H   0  0  0  0  0  0  0  0  0  0  0  0
 95 96  1  0  0  0
 95 97  1  0  0  0
 95 98  1  0  0  0
 96 91  1  0  0  0
 96 99  1  0  0  0
 91 92  2  0  0  0
 91 93  1  0  0  0
 93 90  1  0  0  0
 93 94  1  0  0  0
 90103  1  0  0  0
 90 86  1  0  0  0
103104  1  0  0  0
104105  1  0  0  0
105106  2  0  0  0
105107  1  0  0  0
107108  1  0  0  0
107109  1  0  0  0
 86 87  2  0  0  0
 86 88  1  0  0  0
 88 85  1  0  0  0
 88 89  1  0  0  0
 85110  1  0  0  0
 85 81  1  0  0  0
110111  1  0  0  0
111112  1  0  0  0
112113  2  0  0  0
112114  1  0  0  0
114115  1  0  0  0
114116  1  0  0  0
 81 82  2  0  0  0
 81 83  1  0  0  0
 83 79  1  0  0  0
 83 84  1  0  0  0
 79 80  1  0  0  0
 79 75  1  0  0  0
 75 76  2  0  0  0
 75 77  1  0  0  0
 77 74  1  0  0  0
 77 78  1  0  0  0
 74117  1  0  0  0
 74 70  1  0  0  0
117118  1  0  0  0
118119  1  0  0  0
 70 71  2  0  0  0
 70 72  1  0  0  0
 72 69  1  0  0  0
 72 73  1  0  0  0
 69120  1  0  0  0
 69 65  1  0  0  0
120121  1  0  0  0
121125  1  0  0  0
121122  2  0  0  0
122123  1  0  0  0
123124  2  0  0  0
124125  1  0  0  0
125126  1  0  0  0
 65 66  2  0  0  0
 65 67  1  0  0  0
 67  1  1  0  0  0
 67 68  1  0  0  0
  1  2  1  0  0  0
  1 10  1  0  0  0
  2  8  2  0  0  0
  2  3  1  0  0  0
  3  4  2  0  0  0
  4  5  1  0  0  0
  5  6  1  0  0  0
  5  7  2  0  0  0
  6  9  1  0  0  0
  7  8  1  0  0  0
 10 11  2  0  0  0
 10 12  1  0  0  0
 12 14  1  0  0  0
 12 13  1  0  0  0
 14 58  1  0  0  0
 14 15  1  0  0  0
 58 59  1  0  0  0
 59 60  1  0  0  0
 60 61  1  0  0  0
 61 62  1  0  0  0
 62 63  1  0  0  0
 62 64  1  0  0  0
 15 16  2  0  0  0
 15 17  1  0  0  0
 17 19  1  0  0  0
 17 18  1  0  0  0
 19 51  1  0  0  0
 19 20  1  0  0  0
 51 52  1  0  0  0
 52 53  1  0  0  0
 53 54  2  0  0  0
 53 55  1  0  0  0
 55 56  1  0  0  0
 55 57  1  0  0  0
 20 21  2  0  0  0
 20 22  1  0  0  0
 22 24  1  0  0  0
 22 23  1  0  0  0
 24 44  1  0  0  0
 24 25  1  0  0  0
 44 45  1  0  0  0
 45 49  1  0  0  0
 45 46  2  0  0  0
 46 47  1  0  0  0
 47 48  2  0  0  0
 48 49  1  0  0  0
 49 50  1  0  0  0
 25 26  2  0  0  0
 25 27  1  0  0  0
 27 29  1  0  0  0
 27 28  1  0  0  0
 29 41  1  0  0  0
 29 30  1  0  0  0
 41 42  1  0  0  0
 42 43  1  0  0  0
 30 31  2  0  0  0
 30 32  1  0  0  0
 32 36  1  0  0  0
 32 33  1  0  0  0
 33 34  1  0  0  0
 34 35  1  0  0  0
 35 36  1  0  0  0
 36 37  1  0  0  0
 37 38  1  0  0  0
 37 39  2  0  0  0
 38 40  1  0  0  0
 99100  1  0  0  0
 99101  1  0  0  0
100102  1  0  0  0
M  END
> <minimizedAffinity>
-4.05444

$$$$



126129  0  0  0  0  0  0  0  0999 V2000
    8.1078   22.2475  -36.6613 C   0  0  0  0  0  0  0  0  0  0  0  0
    7.4149   22.9570  -36.7892 C   0  0  0  0  0  0  0  0  0  0  0  0
    6.4769   22.8016  -36.4794 C   0  0  0  0  0  0  0  0  0  0  0  0
    5.7839   23.5112  -36.6073 C   0  0  0  0  0  0  0  0  0  0  0  0
    6.0290   24.3763  -37.0451 C   0  0  0  0  0  0  0  0  0  0  0  0
    5.3361   25.0858  -37.1730 O   0  0  0  0  0  0  0  0  0  0  0  0
    6.9670   24.5317  -37.3549 C   0  0  0  0  0  0  0  0  0  0  0  0
    7.6599   23.8222  -37.2270 C   0  0  0  0  0  0  0  0  0  0  0  0
    4.4572   24.9402  -36.8827 H   0  0  0  0  0  0  0  0  0  0  0  0
    8.9828   22.4744  -36.2338 C   0  0  0  0  0  0  0  0  0  0  0  0
    9.2416   23.4313  -36.1020 O   0  0  0  0  0  0  0  0  0  0  0  0
    9.5989   21.7445  -35.9380 N   0  0  0  0  0  0  0  0  0  0  0  0
    9.3441   20.8024  -36.0678 H   0  0  0  0  0  0  0  0  0  0  0  0
   10.4740   21.9714  -35.5104 C   0  0  0  0  0  0  0  0  0  0  0  0
   10.6223   21.7762  -34.5409 C   0  0  0  0  0  0  0  0  0  0  0  0
   11.5427   21.5728  -34.2069 O   0  0  0  0  0  0  0  0  0  0  0  0
    9.8503   21.7845  -33.9054 N   0  0  0  0  0  0  0  0  0  0  0  0
    8.9442   21.9848  -34.2342 H   0  0  0  0  0  0  0  0  0  0  0  0
    9.9986   21.5893  -32.9359 C   0  0  0  0  0  0  0  0  0  0  0  0
    9.9073   20.6538  -32.5946 C   0  0  0  0  0  0  0  0  0  0  0  0
    9.1662   20.0704  -32.9268 O   0  0  0  0  0  0  0  0  0  0  0  0
   10.5572   20.3017  -31.9210 N   0  0  0  0  0  0  0  0  0  0  0  0
   11.2869   20.8761  -31.5939 H   0  0  0  0  0  0  0  0  0  0  0  0
   10.4660   19.3662  -31.5797 C   0  0  0  0  0  0  0  0  0  0  0  0
   10.9092   18.6119  -32.0640 C   0  0  0  0  0  0  0  0  0  0  0  0
   10.4895   17.7042  -32.0666 O   0  0  0  0  0  0  0  0  0  0  0  0
   11.7720   18.7651  -32.5457 N   0  0  0  0  0  0  0  0  0  0  0  0
   12.1852   19.6587  -32.5430 H   0  0  0  0  0  0  0  0  0  0  0  0
   12.2151   18.0108  -33.0300 C   0  0  0  0  0  0  0  0  0  0  0  0
   12.7541   18.1926  -33.8524 C   0  0  0  0  0  0  0  0  0  0  0  0
   13.7411   18.3368  -33.7817 O   0  0  0  0  0  0  0  0  0  0  0  0
   12.3060   18.2303  -34.7457 N   0  0  0  0  0  0  0  0  0  0  0  0
   11.3299   18.1002  -34.9195 C   0  0  0  0  0  0  0  0  0  0  0  0
   11.1760   18.1942  -35.9031 C   0  0  0  0  0  0  0  0  0  0  0  0
   12.0570   18.3824  -36.3371 C   0  0  0  0  0  0  0  0  0  0  0  0
   12.7554   18.4047  -35.6218 C   0  0  0  0  0  0  0  0  0  0  0  0
   13.7317   18.5720  -35.7585 C   0  0  0  0  0  0  0  0  0  0  0  0
   14.3504   17.8064  -35.9348 O   0  0  0  0  0  0  0  0  0  0  0  0
   14.0895   19.5051  -35.7191 O   0  0  0  0  0  0  0  0  0  0  0  0
   14.0152   16.9322  -35.9717 H   0  0  0  0  0  0  0  0  0  0  0  0
   12.1194   17.0745  -32.6918 C   0  0  0  0  0  0  0  0  0  0  0  0
   12.8962   16.6173  -32.2588 S   0  0  0  0  0  0  0  0  0  0  0  0
   14.0830   17.2688  -32.1299 H   0  0  0  0  0  0  0  0  0  0  0  0
    9.9317   19.1851  -30.7541 C   0  0  0  0  0  0  0  0  0  0  0  0
   10.2818   19.4654  -29.8603 C   0  0  0  0  0  0  0  0  0  0  0  0
    9.9524   20.2366  -29.3155 C   0  0  0  0  0  0  0  0  0  0  0  0
   10.4898   20.2716  -28.4729 N   0  0  0  0  0  0  0  0  0  0  0  0
   11.1514   19.5220  -28.4970 C   0  0  0  0  0  0  0  0  0  0  0  0
   11.0228   19.0238  -29.3545 N   0  0  0  0  0  0  0  0  0  0  0  0
   11.5357   18.2367  -29.6489 H   0  0  0  0  0  0  0  0  0  0  0  0
   10.2381   22.3296  -32.3078 C   0  0  0  0  0  0  0  0  0  0  0  0
    9.5279   22.9458  -31.9672 C   0  0  0  0  0  0  0  0  0  0  0  0
    9.7825   23.7975  -31.5091 C   0  0  0  0  0  0  0  0  0  0  0  0
   10.0518   24.5947  -32.0496 O   0  0  0  0  0  0  0  0  0  0  0  0
    9.7678   23.8520  -30.5108 N   0  0  0  0  0  0  0  0  0  0  0  0
    9.5026   23.0672  -29.9788 H   0  0  0  0  0  0  0  0  0  0  0  0
   10.0184   24.6905  -30.0598 H   0  0  0  0  0  0  0  0  0  0  0  0
   11.2008   22.3935  -36.0523 C   0  0  0  0  0  0  0  0  0  0  0  0
   11.6700   21.8633  -36.7586 C   0  0  0  0  0  0  0  0  0  0  0  0
   12.3652   22.2981  -37.3310 C   0  0  0  0  0  0  0  0  0  0  0  0
   12.7468   21.8070  -38.1141 C   0  0  0  0  0  0  0  0  0  0  0  0
   13.6780   21.4448  -38.0717 N   0  0  0  0  0  0  0  0  0  0  0  0
   14.2385   21.5763  -37.2296 H   0  0  0  0  0  0  0  0  0  0  0  0
   14.0672   20.9439  -38.8704 H   0  0  0  0  0  0  0  0  0  0  0  0
    8.1579   21.0299  -37.8921 C   0  0  0  0  0  0  0  0  0  0  0  0
    8.5723   21.6853  -38.5237 O   0  0  0  0  0  0  0  0  0  0  0  0
    7.9257   21.3110  -36.9610 N   0  0  0  0  0  0  0  0  0  0  0  0
    7.5177   20.6658  -36.3393 H   0  0  0  0  0  0  0  0  0  0  0  0
    7.9758   20.0934  -38.1918 C   0  0  0  0  0  0  0  0  0  0  0  0
    6.6239   19.1046  -37.7507 C   0  0  0  0  0  0  0  0  0  0  0  0
    7.1533   18.7175  -36.9958 O   0  0  0  0  0  0  0  0  0  0  0  0
    7.0352   19.7926  -38.3487 N   0  0  0  0  0  0  0  0  0  0  0  0
    6.5140   20.1737  -39.0919 H   0  0  0  0  0  0  0  0  0  0  0  0
    5.6832   18.8039  -37.9075 C   0  0  0  0  0  0  0  0  0  0  0  0
    4.2819   19.6766  -37.3834 C   0  0  0  0  0  0  0  0  0  0  0  0
    4.2864   20.1966  -38.2375 O   0  0  0  0  0  0  0  0  0  0  0  0
    4.9803   18.9802  -37.2184 N   0  0  0  0  0  0  0  0  0  0  0  0
    4.9760   18.4683  -36.3775 H   0  0  0  0  0  0  0  0  0  0  0  0
    3.5791   19.8530  -36.6943 C   0  0  0  0  0  0  0  0  0  0  0  0
    2.6357   19.5642  -36.8570 C   0  0  0  0  0  0  0  0  0  0  0  0
    3.6870   19.8561  -34.9657 C   0  0  0  0  0  0  0  0  0  0  0  0
    3.3138   18.9286  -34.9407 O   0  0  0  0  0  0  0  0  0  0  0  0
    3.8197   20.3182  -35.8424 N   0  0  0  0  0  0  0  0  0  0  0  0
    4.1871   21.2313  -35.8670 H   0  0  0  0  0  0  0  0  0  0  0  0
    3.9276   20.3213  -34.1137 C   0  0  0  0  0  0  0  0  0  0  0  0
    5.3891   19.8271  -33.3266 C   0  0  0  0  0  0  0  0  0  0  0  0
    5.9242   20.3371  -34.0000 O   0  0  0  0  0  0  0  0  0  0  0  0
    4.3908   19.8192  -33.3834 N   0  0  0  0  0  0  0  0  0  0  0  0
    3.8640   19.3171  -32.7205 H   0  0  0  0  0  0  0  0  0  0  0  0
    5.8524   19.3249  -32.5963 C   0  0  0  0  0  0  0  0  0  0  0  0
    6.3884   17.7016  -32.8747 C   0  0  0  0  0  0  0  0  0  0  0  0
    5.4610   17.3668  -32.7083 O   0  0  0  0  0  0  0  0  0  0  0  0
    6.5841   18.6807  -32.8188 N   0  0  0  0  0  0  0  0  0  0  0  0
    7.4972   19.0104  -32.9827 H   0  0  0  0  0  0  0  0  0  0  0  0
    7.6901   16.6771  -32.3687 N   0  0  0  0  0  0  0  0  0  0  0  0
    7.1203   17.0574  -33.0972 C   0  0  0  0  0  0  0  0  0  0  0  0
    8.4366   16.0200  -32.5956 H   0  0  0  0  0  0  0  0  0  0  0  0
    7.5249   16.9463  -31.3988 H   0  0  0  0  0  0  0  0  0  0  0  0
    7.2822   16.7935  -34.0480 C   0  0  0  0  0  0  0  0  0  0  0  0
    6.5325   16.8214  -34.7093 O   0  0  0  0  0  0  0  0  0  0  0  0
    8.1937   16.5017  -34.3376 C   0  0  0  0  0  0  0  0  0  0  0  0
    5.6483   17.1045  -34.4283 H   0  0  0  0  0  0  0  0  0  0  0  0
    5.5838   19.4670  -31.6436 C   0  0  0  0  0  0  0  0  0  0  0  0
    6.1800   19.9819  -31.0276 C   0  0  0  0  0  0  0  0  0  0  0  0
    6.1194   19.8409  -30.0394 C   0  0  0  0  0  0  0  0  0  0  0  0
    6.6060   19.0788  -29.6123 O   0  0  0  0  0  0  0  0  0  0  0  0
    5.5723   20.4621  -29.4783 N   0  0  0  0  0  0  0  0  0  0  0  0
    5.0933   21.2124  -29.8989 H   0  0  0  0  0  0  0  0  0  0  0  0
    5.5126   20.3233  -28.5055 H   0  0  0  0  0  0  0  0  0  0  0  0
    3.7049   21.2885  -33.9921 C   0  0  0  0  0  0  0  0  0  0  0  0
    2.9027   21.5535  -33.4572 C   0  0  0  0  0  0  0  0  0  0  0  0
    2.6159   22.5110  -33.4268 C   0  0  0  0  0  0  0  0  0  0  0  0
    2.6345   23.0651  -34.2590 O   0  0  0  0  0  0  0  0  0  0  0  0
    2.3106   22.9144  -32.5642 N   0  0  0  0  0  0  0  0  0  0  0  0
    2.2923   22.3689  -31.7449 H   0  0  0  0  0  0  0  0  0  0  0  0
    2.0283   23.8572  -32.5343 H   0  0  0  0  0  0  0  0  0  0  0  0
    5.4454   18.3267  -38.7535 C   0  0  0  0  0  0  0  0  0  0  0  0
    5.7520   17.3862  -38.9003 O   0  0  0  0  0  0  0  0  0  0  0  0
    5.5213   16.9234  -39.7210 H   0  0  0  0  0  0  0  0  0  0  0  0
    8.7345   19.4576  -38.3346 C   0  0  0  0  0  0  0  0  0  0  0  0
    9.1510   19.3714  -39.2396 C   0  0  0  0  0  0  0  0  0  0  0  0
   10.1229   19.4737  -39.4515 C   0  0  0  0  0  0  0  0  0  0  0  0
   10.2414   19.3332  -40.4346 N   0  0  0  0  0  0  0  0  0  0  0  0
    9.3425   19.1441  -40.8301 C   0  0  0  0  0  0  0  0  0  0  0  0
    8.6688   19.1677  -40.0916 N   0  0  0  0  0  0  0  0  0  0  0  0
    7.7005   19.0168  -40.1866 H   0  0  0  0  0  0  0  0  0  0  0  0
 95 96  1  0  0  0
 95 97  1  0  0  0
 95 98  1  0  0  0
 96 91  1  0  0  0
 96 99  1  0  0  0
 91 92  2  0  0  0
 91 93  1  0  0  0
 93 90  1  0  0  0
 93 94  1  0  0  0
 90103  1  0  0  0
 90 86  1  0  0  0
103104  1  0  0  0
104105  1  0  0  0
105106  2  0  0  0
105107  1  0  0  0
107108  1  0  0  0
107109  1  0  0  0
 86 87  2  0  0  0
 86 88  1  0  0  0
 88 85  1  0  0  0
 88 89  1  0  0  0
 85110  1  0  0  0
 85 81  1  0  0  0
110111  1  0  0  0
111112  1  0  0  0
112113  2  0  0  0
112114  1  0  0  0
114115  1  0  0  0
114116  1  0  0  0
 81 82  2  0  0  0
 81 83  1  0  0  0
 83 79  1  0  0  0
 83 84  1  0  0  0
 79 80  1  0  0  0
 79 75  1  0  0  0
 75 76  2  0  0  0
 75 77  1  0  0  0
 77 74  1  0  0  0
 77 78  1  0  0  0
 74117  1  0  0  0
 74 70  1  0  0  0
117118  1  0  0  0
118119  1  0  0  0
 70 71  2  0  0  0
 70 72  1  0  0  0
 72 69  1  0  0  0
 72 73  1  0  0  0
 69120  1  0  0  0
 69 65  1  0  0  0
120121  1  0  0  0
121125  1  0  0  0
121122  2  0  0  0
122123  1  0  0  0
123124  2  0  0  0
124125  1  0  0  0
125126  1  0  0  0
 65 66  2  0  0  0
 65 67  1  0  0  0
 67  1  1  0  0  0
 67 68  1  0  0  0
  1  2  1  0  0  0
  1 10  1  0  0  0
  2  8  2  0  0  0
  2  3  1  0  0  0
  3  4  2  0  0  0
  4  5  1  0  0  0
  5  6  1  0  0  0
  5  7  2  0  0  0
  6  9  1  0  0  0
  7  8  1  0  0  0
 10 11  2  0  0  0
 10 12  1  0  0  0
 12 14  1  0  0  0
 12 13  1  0  0  0
 14 58  1  0  0  0
 14 15  1  0  0  0
 58 59  1  0  0  0
 59 60  1  0  0  0
 60 61  1  0  0  0
 61 62  1  0  0  0
 62 63  1  0  0  0
 62 64  1  0  0  0
 15 16  2  0  0  0
 15 17  1  0  0  0
 17 19  1  0  0  0
 17 18  1  0  0  0
 19 51  1  0  0  0
 19 20  1  0  0  0
 51 52  1  0  0  0
 52 53  1  0  0  0
 53 54  2  0  0  0
 53 55  1  0  0  0
 55 56  1  0  0  0
 55 57  1  0  0  0
 20 21  2  0  0  0
 20 22  1  0  0  0
 22 24  1  0  0  0
 22 23  1  0  0  0
 24 44  1  0  0  0
 24 25  1  0  0  0
 44 45  1  0  0  0
 45 49  1  0  0  0
 45 46  2  0  0  0
 46 47  1  0  0  0
 47 48  2  0  0  0
 48 49  1  0  0  0
 49 50  1  0  0  0
 25 26  2  0  0  0
 25 27  1  0  0  0
 27 29  1  0  0  0
 27 28  1  0  0  0
 29 41  1  0  0  0
 29 30  1  0  0  0
 41 42  1  0  0  0
 42 43  1  0  0  0
 30 31  2  0  0  0
 30 32  1  0  0  0
 32 36  1  0  0  0
 32 33  1  0  0  0
 33 34  1  0  0  0
 34 35  1  0  0  0
 35 36  1  0  0  0
 36 37  1  0  0  0
 37 38  1  0  0  0
 37 39  2  0  0  0
 38 40  1  0  0  0
 99100  1  0  0  0
 99101  1  0  0  0
100102  1  0  0  0
M  END
> <minimizedAffinity>
-4.04755

$$$$
