


126129  0  0  0  0  0  0  0  0999 V2000
    5.5876   43.0618  -22.6647 C   0  0  0  0  0  0  0  0  0  0  0  0
    5.3843   42.1041  -22.8681 C   0  0  0  0  0  0  0  0  0  0  0  0
    5.9862   41.5826  -23.4729 C   0  0  0  0  0  0  0  0  0  0  0  0
    5.7828   40.6249  -23.6764 C   0  0  0  0  0  0  0  0  0  0  0  0
    4.9775   40.1886  -23.2750 C   0  0  0  0  0  0  0  0  0  0  0  0
    4.7741   39.2309  -23.4784 O   0  0  0  0  0  0  0  0  0  0  0  0
    4.3755   40.7100  -22.6702 C   0  0  0  0  0  0  0  0  0  0  0  0
    4.5789   41.6677  -22.4667 C   0  0  0  0  0  0  0  0  0  0  0  0
    5.3381   38.7423  -24.0451 H   0  0  0  0  0  0  0  0  0  0  0  0
    6.4496   43.3065  -22.2206 C   0  0  0  0  0  0  0  0  0  0  0  0
    6.5297   43.2605  -21.2249 O   0  0  0  0  0  0  0  0  0  0  0  0
    7.2313   43.5971  -22.7723 N   0  0  0  0  0  0  0  0  0  0  0  0
    7.1524   43.6423  -23.7526 H   0  0  0  0  0  0  0  0  0  0  0  0
    8.0933   43.8418  -22.3282 C   0  0  0  0  0  0  0  0  0  0  0  0
    8.8626   43.2030  -22.3434 C   0  0  0  0  0  0  0  0  0  0  0  0
    9.3310   43.0048  -23.2043 O   0  0  0  0  0  0  0  0  0  0  0  0
    9.1634   42.7624  -21.4975 N   0  0  0  0  0  0  0  0  0  0  0  0
    8.7022   42.9576  -20.6499 H   0  0  0  0  0  0  0  0  0  0  0  0
    9.9326   42.1237  -21.5127 C   0  0  0  0  0  0  0  0  0  0  0  0
   10.8468   42.4357  -21.2541 C   0  0  0  0  0  0  0  0  0  0  0  0
   10.9661   43.0286  -20.4577 O   0  0  0  0  0  0  0  0  0  0  0  0
   11.6417   42.1549  -21.7920 N   0  0  0  0  0  0  0  0  0  0  0  0
   11.5242   41.5713  -22.5761 H   0  0  0  0  0  0  0  0  0  0  0  0
   12.5559   42.4670  -21.5335 C   0  0  0  0  0  0  0  0  0  0  0  0
   13.0144   43.1730  -22.0732 C   0  0  0  0  0  0  0  0  0  0  0  0
   13.3020   42.9776  -23.0108 O   0  0  0  0  0  0  0  0  0  0  0  0
   13.1854   44.0743  -21.6753 N   0  0  0  0  0  0  0  0  0  0  0  0
   12.9023   44.2666  -20.7522 H   0  0  0  0  0  0  0  0  0  0  0  0
   13.6440   44.7803  -22.2150 C   0  0  0  0  0  0  0  0  0  0  0  0
   13.1132   45.5275  -22.6149 C   0  0  0  0  0  0  0  0  0  0  0  0
   13.1391   45.6868  -23.6018 O   0  0  0  0  0  0  0  0  0  0  0  0
   12.5565   46.1155  -22.0279 N   0  0  0  0  0  0  0  0  0  0  0  0
   12.4652   46.0376  -21.0352 C   0  0  0  0  0  0  0  0  0  0  0  0
   11.8457   46.7585  -20.7245 C   0  0  0  0  0  0  0  0  0  0  0  0
   11.5542   47.2818  -21.5252 C   0  0  0  0  0  0  0  0  0  0  0  0
   11.9935   46.8844  -22.3308 C   0  0  0  0  0  0  0  0  0  0  0  0
   11.8883   47.2005  -23.2736 C   0  0  0  0  0  0  0  0  0  0  0  0
   12.4959   47.9080  -23.6346 O   0  0  0  0  0  0  0  0  0  0  0  0
   11.1755   46.8091  -23.8556 O   0  0  0  0  0  0  0  0  0  0  0  0
   13.1638   48.2747  -23.0893 H   0  0  0  0  0  0  0  0  0  0  0  0
   14.6334   44.7391  -22.3548 C   0  0  0  0  0  0  0  0  0  0  0  0
   15.2520   45.1118  -21.6631 S   0  0  0  0  0  0  0  0  0  0  0  0
   14.7479   45.6746  -20.5323 H   0  0  0  0  0  0  0  0  0  0  0  0
   13.0115   42.0731  -20.7352 C   0  0  0  0  0  0  0  0  0  0  0  0
   13.4919   41.1996  -20.8141 C   0  0  0  0  0  0  0  0  0  0  0  0
   13.1773   40.3211  -20.4544 C   0  0  0  0  0  0  0  0  0  0  0  0
   13.8622   39.6298  -20.6845 N   0  0  0  0  0  0  0  0  0  0  0  0
   14.6002   40.0810  -21.1864 C   0  0  0  0  0  0  0  0  0  0  0  0
   14.3713   41.0512  -21.2665 N   0  0  0  0  0  0  0  0  0  0  0  0
   14.9161   41.7394  -21.7124 H   0  0  0  0  0  0  0  0  0  0  0  0
    9.7876   41.1728  -21.7863 C   0  0  0  0  0  0  0  0  0  0  0  0
    9.3492   40.5324  -21.1558 C   0  0  0  0  0  0  0  0  0  0  0  0
    9.2021   39.5821  -21.4304 C   0  0  0  0  0  0  0  0  0  0  0  0
    8.3271   39.3064  -21.8285 O   0  0  0  0  0  0  0  0  0  0  0  0
    9.9298   38.9076  -21.3069 N   0  0  0  0  0  0  0  0  0  0  0  0
   10.7912   39.1790  -20.9149 H   0  0  0  0  0  0  0  0  0  0  0  0
    9.7850   37.9720  -21.5772 H   0  0  0  0  0  0  0  0  0  0  0  0
    8.1860   44.7253  -21.8691 C   0  0  0  0  0  0  0  0  0  0  0  0
    8.2232   45.5672  -22.4076 C   0  0  0  0  0  0  0  0  0  0  0  0
    8.0353   46.4477  -21.9724 C   0  0  0  0  0  0  0  0  0  0  0  0
    8.0855   47.2908  -22.5078 C   0  0  0  0  0  0  0  0  0  0  0  0
    7.3622   47.9768  -22.4292 N   0  0  0  0  0  0  0  0  0  0  0  0
    6.5732   47.8166  -21.8029 H   0  0  0  0  0  0  0  0  0  0  0  0
    7.4134   48.8368  -22.9752 H   0  0  0  0  0  0  0  0  0  0  0  0
    4.8827   44.1164  -23.8440 C   0  0  0  0  0  0  0  0  0  0  0  0
    5.4948   43.7449  -24.5421 O   0  0  0  0  0  0  0  0  0  0  0  0
    4.9291   43.7748  -22.9053 N   0  0  0  0  0  0  0  0  0  0  0  0
    4.3265   44.1405  -22.2180 H   0  0  0  0  0  0  0  0  0  0  0  0
    4.2241   44.8294  -24.0846 C   0  0  0  0  0  0  0  0  0  0  0  0
    4.8106   46.3993  -24.5223 C   0  0  0  0  0  0  0  0  0  0  0  0
    4.9416   46.6198  -23.5558 O   0  0  0  0  0  0  0  0  0  0  0  0
    4.4519   45.5040  -24.7867 N   0  0  0  0  0  0  0  0  0  0  0  0
    4.3229   45.2869  -25.7383 H   0  0  0  0  0  0  0  0  0  0  0  0
    5.0383   47.0739  -25.2245 C   0  0  0  0  0  0  0  0  0  0  0  0
    6.5224   47.7038  -25.8575 C   0  0  0  0  0  0  0  0  0  0  0  0
    6.3616   48.5657  -25.3767 O   0  0  0  0  0  0  0  0  0  0  0  0
    5.8608   46.9578  -25.7813 N   0  0  0  0  0  0  0  0  0  0  0  0
    6.0191   46.1092  -26.2546 H   0  0  0  0  0  0  0  0  0  0  0  0
    7.3449   47.5877  -26.4143 C   0  0  0  0  0  0  0  0  0  0  0  0
    8.2417   47.8160  -26.0353 C   0  0  0  0  0  0  0  0  0  0  0  0
    7.5297   47.8270  -28.1197 C   0  0  0  0  0  0  0  0  0  0  0  0
    7.8630   48.7550  -27.9534 O   0  0  0  0  0  0  0  0  0  0  0  0
    7.2706   47.2434  -27.3502 N   0  0  0  0  0  0  0  0  0  0  0  0
    6.9424   46.3297  -27.5139 H   0  0  0  0  0  0  0  0  0  0  0  0
    7.4554   47.4826  -29.0557 C   0  0  0  0  0  0  0  0  0  0  0  0
    5.9454   47.1049  -29.8155 C   0  0  0  0  0  0  0  0  0  0  0  0
    5.8548   48.0566  -30.1086 O   0  0  0  0  0  0  0  0  0  0  0  0
    6.7457   46.8179  -29.2890 N   0  0  0  0  0  0  0  0  0  0  0  0
    6.8349   45.8809  -29.0004 H   0  0  0  0  0  0  0  0  0  0  0  0
    5.2357   46.4402  -30.0488 C   0  0  0  0  0  0  0  0  0  0  0  0
    4.4722   45.6749  -28.6955 C   0  0  0  0  0  0  0  0  0  0  0  0
    3.9840   46.5233  -28.4911 O   0  0  0  0  0  0  0  0  0  0  0  0
    5.0981   45.6333  -29.4743 N   0  0  0  0  0  0  0  0  0  0  0  0
    5.5787   44.7980  -29.6756 H   0  0  0  0  0  0  0  0  0  0  0  0
    5.1088   44.4622  -27.6351 N   0  0  0  0  0  0  0  0  0  0  0  0
    4.3346   44.8679  -28.1210 C   0  0  0  0  0  0  0  0  0  0  0  0
    4.9685   43.6392  -27.0492 H   0  0  0  0  0  0  0  0  0  0  0  0
    6.0388   44.8714  -27.7255 H   0  0  0  0  0  0  0  0  0  0  0  0
    3.4229   44.4668  -28.0324 C   0  0  0  0  0  0  0  0  0  0  0  0
    2.7116   44.9499  -27.5219 O   0  0  0  0  0  0  0  0  0  0  0  0
    3.2226   43.5826  -28.4543 C   0  0  0  0  0  0  0  0  0  0  0  0
    2.9059   45.8076  -27.1126 H   0  0  0  0  0  0  0  0  0  0  0  0
    4.6636   46.5823  -30.8565 C   0  0  0  0  0  0  0  0  0  0  0  0
    4.6095   45.8752  -31.5615 C   0  0  0  0  0  0  0  0  0  0  0  0
    3.9290   45.9472  -32.2908 C   0  0  0  0  0  0  0  0  0  0  0  0
    3.9793   45.3396  -33.0834 O   0  0  0  0  0  0  0  0  0  0  0  0
    3.1982   46.6268  -32.2273 N   0  0  0  0  0  0  0  0  0  0  0  0
    3.1487   47.2249  -31.4470 H   0  0  0  0  0  0  0  0  0  0  0  0
    2.5282   46.6977  -32.9452 H   0  0  0  0  0  0  0  0  0  0  0  0
    8.0908   47.8030  -29.7583 C   0  0  0  0  0  0  0  0  0  0  0  0
    9.0306   47.4619  -29.7755 C   0  0  0  0  0  0  0  0  0  0  0  0
    9.5553   47.4850  -30.6264 C   0  0  0  0  0  0  0  0  0  0  0  0
    9.9822   48.3378  -30.9276 O   0  0  0  0  0  0  0  0  0  0  0  0
    9.6533   46.6554  -31.1762 N   0  0  0  0  0  0  0  0  0  0  0  0
    9.2331   45.8160  -30.8797 H   0  0  0  0  0  0  0  0  0  0  0  0
   10.1700   46.6783  -32.0139 H   0  0  0  0  0  0  0  0  0  0  0  0
    4.4436   47.8646  -25.3697 C   0  0  0  0  0  0  0  0  0  0  0  0
    3.6102   47.7700  -25.9142 O   0  0  0  0  0  0  0  0  0  0  0  0
    3.0333   48.5371  -26.0551 H   0  0  0  0  0  0  0  0  0  0  0  0
    3.3378   44.8678  -23.6231 C   0  0  0  0  0  0  0  0  0  0  0  0
    2.5134   44.5586  -24.0971 C   0  0  0  0  0  0  0  0  0  0  0  0
    1.6852   45.0983  -24.2487 C   0  0  0  0  0  0  0  0  0  0  0  0
    1.0323   44.5287  -24.7481 N   0  0  0  0  0  0  0  0  0  0  0  0
    1.4570   43.6370  -24.9052 C   0  0  0  0  0  0  0  0  0  0  0  0
    2.3723   43.6556  -24.5028 N   0  0  0  0  0  0  0  0  0  0  0  0
    3.0208   42.9148  -24.5057 H   0  0  0  0  0  0  0  0  0  0  0  0
 95 96  1  0  0  0
 95 97  1  0  0  0
 95 98  1  0  0  0
 96 91  1  0  0  0
 96 99  1  0  0  0
 91 92  2  0  0  0
 91 93  1  0  0  0
 93 90  1  0  0  0
 93 94  1  0  0  0
 90103  1  0  0  0
 90 86  1  0  0  0
103104  1  0  0  0
104105  1  0  0  0
105106  2  0  0  0
105107  1  0  0  0
107108  1  0  0  0
107109  1  0  0  0
 86 87  2  0  0  0
 86 88  1  0  0  0
 88 85  1  0  0  0
 88 89  1  0  0  0
 85110  1  0  0  0
 85 81  1  0  0  0
110111  1  0  0  0
111112  1  0  0  0
112113  2  0  0  0
112114  1  0  0  0
114115  1  0  0  0
114116  1  0  0  0
 81 82  2  0  0  0
 81 83  1  0  0  0
 83 79  1  0  0  0
 83 84  1  0  0  0
 79 80  1  0  0  0
 79 75  1  0  0  0
 75 76  2  0  0  0
 75 77  1  0  0  0
 77 74  1  0  0  0
 77 78  1  0  0  0
 74117  1  0  0  0
 74 70  1  0  0  0
117118  1  0  0  0
118119  1  0  0  0
 70 71  2  0  0  0
 70 72  1  0  0  0
 72 69  1  0  0  0
 72 73  1  0  0  0
 69120  1  0  0  0
 69 65  1  0  0  0
120121  1  0  0  0
121125  1  0  0  0
121122  2  0  0  0
122123  1  0  0  0
123124  2  0  0  0
124125  1  0  0  0
125126  1  0  0  0
 65 66  2  0  0  0
 65 67  1  0  0  0
 67  1  1  0  0  0
 67 68  1  0  0  0
  1  2  1  0  0  0
  1 10  1  0  0  0
  2  8  2  0  0  0
  2  3  1  0  0  0
  3  4  2  0  0  0
  4  5  1  0  0  0
  5  6  1  0  0  0
  5  7  2  0  0  0
  6  9  1  0  0  0
  7  8  1  0  0  0
 10 11  2  0  0  0
 10 12  1  0  0  0
 12 14  1  0  0  0
 12 13  1  0  0  0
 14 58  1  0  0  0
 14 15  1  0  0  0
 58 59  1  0  0  0
 59 60  1  0  0  0
 60 61  1  0  0  0
 61 62  1  0  0  0
 62 63  1  0  0  0
 62 64  1  0  0  0
 15 16  2  0  0  0
 15 17  1  0  0  0
 17 19  1  0  0  0
 17 18  1  0  0  0
 19 51  1  0  0  0
 19 20  1  0  0  0
 51 52  1  0  0  0
 52 53  1  0  0  0
 53 54  2  0  0  0
 53 55  1  0  0  0
 55 56  1  0  0  0
 55 57  1  0  0  0
 20 21  2  0  0  0
 20 22  1  0  0  0
 22 24  1  0  0  0
 22 23  1  0  0  0
 24 44  1  0  0  0
 24 25  1  0  0  0
 44 45  1  0  0  0
 45 49  1  0  0  0
 45 46  2  0  0  0
 46 47  1  0  0  0
 47 48  2  0  0  0
 48 49  1  0  0  0
 49 50  1  0  0  0
 25 26  2  0  0  0
 25 27  1  0  0  0
 27 29  1  0  0  0
 27 28  1  0  0  0
 29 41  1  0  0  0
 29 30  1  0  0  0
 41 42  1  0  0  0
 42 43  1  0  0  0
 30 31  2  0  0  0
 30 32  1  0  0  0
 32 36  1  0  0  0
 32 33  1  0  0  0
 33 34  1  0  0  0
 34 35  1  0  0  0
 35 36  1  0  0  0
 36 37  1  0  0  0
 37 38  1  0  0  0
 37 39  2  0  0  0
 38 40  1  0  0  0
 99100  1  0  0  0
 99101  1  0  0  0
100102  1  0  0  0
M  END
> <minimizedAffinity>
-5.09422

$$$$



126129  0  0  0  0  0  0  0  0999 V2000
    7.6822   47.8598  -28.1368 C   0  0  0  0  0  0  0  0  0  0  0  0
    8.2281   48.0749  -28.9465 C   0  0  0  0  0  0  0  0  0  0  0  0
    8.7138   47.3467  -29.4300 C   0  0  0  0  0  0  0  0  0  0  0  0
    9.2598   47.5619  -30.2398 C   0  0  0  0  0  0  0  0  0  0  0  0
    9.3199   48.5052  -30.5661 C   0  0  0  0  0  0  0  0  0  0  0  0
    9.8658   48.7203  -31.3758 O   0  0  0  0  0  0  0  0  0  0  0  0
    8.8342   49.2334  -30.0826 C   0  0  0  0  0  0  0  0  0  0  0  0
    8.2883   49.0183  -29.2729 C   0  0  0  0  0  0  0  0  0  0  0  0
   10.3209   48.0380  -31.8288 H   0  0  0  0  0  0  0  0  0  0  0  0
    6.6980   47.7057  -28.2238 C   0  0  0  0  0  0  0  0  0  0  0  0
    6.0753   48.4840  -28.3046 O   0  0  0  0  0  0  0  0  0  0  0  0
    6.3365   46.7734  -28.2300 N   0  0  0  0  0  0  0  0  0  0  0  0
    6.9496   46.0072  -28.1505 H   0  0  0  0  0  0  0  0  0  0  0  0
    5.3522   46.6192  -28.3170 C   0  0  0  0  0  0  0  0  0  0  0  0
    4.7846   46.5375  -27.4979 C   0  0  0  0  0  0  0  0  0  0  0  0
    5.1019   45.9921  -26.7221 O   0  0  0  0  0  0  0  0  0  0  0  0
    3.8996   47.0011  -27.4545 N   0  0  0  0  0  0  0  0  0  0  0  0
    3.5873   47.5380  -28.2183 H   0  0  0  0  0  0  0  0  0  0  0  0
    3.3320   46.9193  -26.6353 C   0  0  0  0  0  0  0  0  0  0  0  0
    2.5016   46.3625  -26.6560 C   0  0  0  0  0  0  0  0  0  0  0  0
    1.7439   46.6168  -27.2569 O   0  0  0  0  0  0  0  0  0  0  0  0
    2.4290   45.5513  -26.0756 N   0  0  0  0  0  0  0  0  0  0  0  0
    3.1750   45.3009  -25.4840 H   0  0  0  0  0  0  0  0  0  0  0  0
    1.5986   44.9945  -26.0963 C   0  0  0  0  0  0  0  0  0  0  0  0
    1.5437   44.2009  -26.7023 C   0  0  0  0  0  0  0  0  0  0  0  0
    2.2864   43.5315  -26.7180 O   0  0  0  0  0  0  0  0  0  0  0  0
    0.7461   44.0768  -27.2926 N   0  0  0  0  0  0  0  0  0  0  0  0
    0.0150   44.7359  -27.2771 H   0  0  0  0  0  0  0  0  0  0  0  0
    0.6912   43.2833  -27.8986 C   0  0  0  0  0  0  0  0  0  0  0  0
    0.8919   43.3835  -28.8731 C   0  0  0  0  0  0  0  0  0  0  0  0
    1.6571   42.8846  -29.2799 O   0  0  0  0  0  0  0  0  0  0  0  0
    0.3273   43.9827  -29.4408 N   0  0  0  0  0  0  0  0  0  0  0  0
   -0.4557   44.5211  -29.1292 C   0  0  0  0  0  0  0  0  0  0  0  0
   -0.8203   45.0197  -29.9157 C   0  0  0  0  0  0  0  0  0  0  0  0
   -0.2626   44.7896  -30.7131 C   0  0  0  0  0  0  0  0  0  0  0  0
    0.4466   44.1486  -30.4197 C   0  0  0  0  0  0  0  0  0  0  0  0
    1.1514   43.7446  -31.0027 C   0  0  0  0  0  0  0  0  0  0  0  0
    2.0194   44.2215  -31.1416 O   0  0  0  0  0  0  0  0  0  0  0  0
    0.9883   42.8636  -31.4469 O   0  0  0  0  0  0  0  0  0  0  0  0
    2.1722   45.0469  -30.7254 H   0  0  0  0  0  0  0  0  0  0  0  0
    0.4356   42.3894  -27.5301 C   0  0  0  0  0  0  0  0  0  0  0  0
   -0.5189   42.1967  -27.3025 S   0  0  0  0  0  0  0  0  0  0  0  0
   -1.4694   43.1503  -27.4940 H   0  0  0  0  0  0  0  0  0  0  0  0
    0.8231   45.2312  -25.5110 C   0  0  0  0  0  0  0  0  0  0  0  0
    0.8743   45.0729  -24.5249 C   0  0  0  0  0  0  0  0  0  0  0  0
    0.8494   45.7763  -23.8145 C   0  0  0  0  0  0  0  0  0  0  0  0
    0.9191   45.3215  -22.9267 N   0  0  0  0  0  0  0  0  0  0  0  0
    0.9871   44.3370  -23.0883 C   0  0  0  0  0  0  0  0  0  0  0  0
    0.9594   44.1834  -24.0761 N   0  0  0  0  0  0  0  0  0  0  0  0
    1.0074   43.3097  -24.5273 H   0  0  0  0  0  0  0  0  0  0  0  0
    3.5947   47.3943  -25.7955 C   0  0  0  0  0  0  0  0  0  0  0  0
    3.4691   48.3836  -25.7204 C   0  0  0  0  0  0  0  0  0  0  0  0
    4.0198   48.9097  -25.0724 C   0  0  0  0  0  0  0  0  0  0  0  0
    3.8945   48.7797  -24.0888 O   0  0  0  0  0  0  0  0  0  0  0  0
    4.6957   49.5658  -25.4080 N   0  0  0  0  0  0  0  0  0  0  0  0
    4.8190   49.6937  -26.3763 H   0  0  0  0  0  0  0  0  0  0  0  0
    5.2379   50.0838  -24.7700 H   0  0  0  0  0  0  0  0  0  0  0  0
    4.9357   46.5469  -29.2233 C   0  0  0  0  0  0  0  0  0  0  0  0
    5.2878   45.8838  -29.8839 C   0  0  0  0  0  0  0  0  0  0  0  0
    5.2748   46.0962  -30.8610 C   0  0  0  0  0  0  0  0  0  0  0  0
    4.6601   45.5985  -31.4728 C   0  0  0  0  0  0  0  0  0  0  0  0
    4.7353   45.7178  -32.4628 N   0  0  0  0  0  0  0  0  0  0  0  0
    5.4392   46.3473  -32.8485 H   0  0  0  0  0  0  0  0  0  0  0  0
    4.1083   45.2101  -33.0868 H   0  0  0  0  0  0  0  0  0  0  0  0
    8.0660   48.5680  -26.6035 C   0  0  0  0  0  0  0  0  0  0  0  0
    7.5731   49.3984  -26.8636 O   0  0  0  0  0  0  0  0  0  0  0  0
    8.1205   47.7987  -27.2400 N   0  0  0  0  0  0  0  0  0  0  0  0
    8.6056   46.9813  -26.9839 H   0  0  0  0  0  0  0  0  0  0  0  0
    8.5043   48.5070  -25.7067 C   0  0  0  0  0  0  0  0  0  0  0  0
    7.6863   47.7868  -24.3606 C   0  0  0  0  0  0  0  0  0  0  0  0
    7.2098   48.6490  -24.1888 O   0  0  0  0  0  0  0  0  0  0  0  0
    8.3335   47.7158  -25.1195 N   0  0  0  0  0  0  0  0  0  0  0  0
    8.8026   46.8669  -25.2887 H   0  0  0  0  0  0  0  0  0  0  0  0
    7.5155   46.9956  -23.7734 C   0  0  0  0  0  0  0  0  0  0  0  0
    8.6763   46.2843  -22.7026 C   0  0  0  0  0  0  0  0  0  0  0  0
    8.3791   46.8991  -21.9721 O   0  0  0  0  0  0  0  0  0  0  0  0
    8.2444   46.3325  -23.6033 N   0  0  0  0  0  0  0  0  0  0  0  0
    8.5369   45.7273  -24.3225 H   0  0  0  0  0  0  0  0  0  0  0  0
    9.4052   45.6212  -22.5325 C   0  0  0  0  0  0  0  0  0  0  0  0
   10.3536   45.8546  -22.7473 C   0  0  0  0  0  0  0  0  0  0  0  0
    9.3514   43.8966  -22.6831 C   0  0  0  0  0  0  0  0  0  0  0  0
    9.7363   43.9650  -23.6035 O   0  0  0  0  0  0  0  0  0  0  0  0
    9.1859   44.7247  -22.1476 N   0  0  0  0  0  0  0  0  0  0  0  0
    8.8070   44.6574  -21.2414 H   0  0  0  0  0  0  0  0  0  0  0  0
    9.1321   43.0000  -22.2982 C   0  0  0  0  0  0  0  0  0  0  0  0
    7.4675   42.5213  -22.3058 C   0  0  0  0  0  0  0  0  0  0  0  0
    7.2891   43.1296  -21.5324 O   0  0  0  0  0  0  0  0  0  0  0  0
    8.3890   42.4565  -22.6887 N   0  0  0  0  0  0  0  0  0  0  0  0
    8.5648   41.8577  -23.4500 H   0  0  0  0  0  0  0  0  0  0  0  0
    6.7245   41.9778  -22.6963 C   0  0  0  0  0  0  0  0  0  0  0  0
    6.6862   40.3117  -22.2243 C   0  0  0  0  0  0  0  0  0  0  0  0
    6.3541   40.5758  -21.3189 O   0  0  0  0  0  0  0  0  0  0  0  0
    6.8714   41.0127  -22.9130 N   0  0  0  0  0  0  0  0  0  0  0  0
    7.1984   40.7527  -23.8045 H   0  0  0  0  0  0  0  0  0  0  0  0
    6.2396   38.8865  -23.1014 N   0  0  0  0  0  0  0  0  0  0  0  0
    6.8332   39.3466  -22.4412 C   0  0  0  0  0  0  0  0  0  0  0  0
    6.3895   37.9021  -23.3226 H   0  0  0  0  0  0  0  0  0  0  0  0
    5.4842   39.4016  -23.5537 H   0  0  0  0  0  0  0  0  0  0  0  0
    7.5738   38.8416  -21.9978 C   0  0  0  0  0  0  0  0  0  0  0  0
    8.5212   39.1404  -22.1123 O   0  0  0  0  0  0  0  0  0  0  0  0
    7.3669   38.0379  -21.4400 C   0  0  0  0  0  0  0  0  0  0  0  0
    8.7219   39.9201  -22.6534 H   0  0  0  0  0  0  0  0  0  0  0  0
    5.8345   42.3993  -22.8700 C   0  0  0  0  0  0  0  0  0  0  0  0
    5.5030   42.4989  -23.8081 C   0  0  0  0  0  0  0  0  0  0  0  0
    4.6811   43.0376  -23.9936 C   0  0  0  0  0  0  0  0  0  0  0  0
    3.8606   42.9053  -23.4375 O   0  0  0  0  0  0  0  0  0  0  0  0
    4.6798   43.7085  -24.7351 N   0  0  0  0  0  0  0  0  0  0  0  0
    5.4876   43.8387  -25.2825 H   0  0  0  0  0  0  0  0  0  0  0  0
    3.8707   44.2389  -24.9176 H   0  0  0  0  0  0  0  0  0  0  0  0
    9.6557   42.6471  -21.5229 C   0  0  0  0  0  0  0  0  0  0  0  0
   10.3440   41.9360  -21.6666 C   0  0  0  0  0  0  0  0  0  0  0  0
   10.8248   41.5401  -20.8843 C   0  0  0  0  0  0  0  0  0  0  0  0
   11.4994   42.0836  -20.3847 O   0  0  0  0  0  0  0  0  0  0  0  0
   10.6311   40.6007  -20.6014 N   0  0  0  0  0  0  0  0  0  0  0  0
    9.9670   40.0656  -21.0932 H   0  0  0  0  0  0  0  0  0  0  0  0
   11.1045   40.2109  -19.8312 H   0  0  0  0  0  0  0  0  0  0  0  0
    6.6157   46.8675  -23.3563 C   0  0  0  0  0  0  0  0  0  0  0  0
    5.9346   46.2887  -23.8047 O   0  0  0  0  0  0  0  0  0  0  0  0
    5.0618   46.1644  -23.4000 H   0  0  0  0  0  0  0  0  0  0  0  0
    9.1134   49.2372  -25.3972 C   0  0  0  0  0  0  0  0  0  0  0  0
   10.1047   49.1215  -25.4595 C   0  0  0  0  0  0  0  0  0  0  0  0
   10.7078   48.8123  -24.7243 C   0  0  0  0  0  0  0  0  0  0  0  0
   11.6429   48.7943  -25.0784 N   0  0  0  0  0  0  0  0  0  0  0  0
   11.6176   49.0926  -26.0326 C   0  0  0  0  0  0  0  0  0  0  0  0
   10.6670   49.2947  -26.2681 N   0  0  0  0  0  0  0  0  0  0  0  0
   10.3418   49.6092  -27.1425 H   0  0  0  0  0  0  0  0  0  0  0  0
 95 96  1  0  0  0
 95 97  1  0  0  0
 95 98  1  0  0  0
 96 91  1  0  0  0
 96 99  1  0  0  0
 91 92  2  0  0  0
 91 93  1  0  0  0
 93 90  1  0  0  0
 93 94  1  0  0  0
 90103  1  0  0  0
 90 86  1  0  0  0
103104  1  0  0  0
104105  1  0  0  0
105106  2  0  0  0
105107  1  0  0  0
107108  1  0  0  0
107109  1  0  0  0
 86 87  2  0  0  0
 86 88  1  0  0  0
 88 85  1  0  0  0
 88 89  1  0  0  0
 85110  1  0  0  0
 85 81  1  0  0  0
110111  1  0  0  0
111112  1  0  0  0
112113  2  0  0  0
112114  1  0  0  0
114115  1  0  0  0
114116  1  0  0  0
 81 82  2  0  0  0
 81 83  1  0  0  0
 83 79  1  0  0  0
 83 84  1  0  0  0
 79 80  1  0  0  0
 79 75  1  0  0  0
 75 76  2  0  0  0
 75 77  1  0  0  0
 77 74  1  0  0  0
 77 78  1  0  0  0
 74117  1  0  0  0
 74 70  1  0  0  0
117118  1  0  0  0
118119  1  0  0  0
 70 71  2  0  0  0
 70 72  1  0  0  0
 72 69  1  0  0  0
 72 73  1  0  0  0
 69120  1  0  0  0
 69 65  1  0  0  0
120121  1  0  0  0
121125  1  0  0  0
121122  2  0  0  0
122123  1  0  0  0
123124  2  0  0  0
124125  1  0  0  0
125126  1  0  0  0
 65 66  2  0  0  0
 65 67  1  0  0  0
 67  1  1  0  0  0
 67 68  1  0  0  0
  1  2  1  0  0  0
  1 10  1  0  0  0
  2  8  2  0  0  0
  2  3  1  0  0  0
  3  4  2  0  0  0
  4  5  1  0  0  0
  5  6  1  0  0  0
  5  7  2  0  0  0
  6  9  1  0  0  0
  7  8  1  0  0  0
 10 11  2  0  0  0
 10 12  1  0  0  0
 12 14  1  0  0  0
 12 13  1  0  0  0
 14 58  1  0  0  0
 14 15  1  0  0  0
 58 59  1  0  0  0
 59 60  1  0  0  0
 60 61  1  0  0  0
 61 62  1  0  0  0
 62 63  1  0  0  0
 62 64  1  0  0  0
 15 16  2  0  0  0
 15 17  1  0  0  0
 17 19  1  0  0  0
 17 18  1  0  0  0
 19 51  1  0  0  0
 19 20  1  0  0  0
 51 52  1  0  0  0
 52 53  1  0  0  0
 53 54  2  0  0  0
 53 55  1  0  0  0
 55 56  1  0  0  0
 55 57  1  0  0  0
 20 21  2  0  0  0
 20 22  1  0  0  0
 22 24  1  0  0  0
 22 23  1  0  0  0
 24 44  1  0  0  0
 24 25  1  0  0  0
 44 45  1  0  0  0
 45 49  1  0  0  0
 45 46  2  0  0  0
 46 47  1  0  0  0
 47 48  2  0  0  0
 48 49  1  0  0  0
 49 50  1  0  0  0
 25 26  2  0  0  0
 25 27  1  0  0  0
 27 29  1  0  0  0
 27 28  1  0  0  0
 29 41  1  0  0  0
 29 30  1  0  0  0
 41 42  1  0  0  0
 42 43  1  0  0  0
 30 31  2  0  0  0
 30 32  1  0  0  0
 32 36  1  0  0  0
 32 33  1  0  0  0
 33 34  1  0  0  0
 34 35  1  0  0  0
 35 36  1  0  0  0
 36 37  1  0  0  0
 37 38  1  0  0  0
 37 39  2  0  0  0
 38 40  1  0  0  0
 99100  1  0  0  0
 99101  1  0  0  0
100102  1  0  0  0
M  END
> <minimizedAffinity>
-5.06745

$$$$



126129  0  0  0  0  0  0  0  0999 V2000
    5.0022   43.1054  -22.0329 C   0  0  0  0  0  0  0  0  0  0  0  0
    4.9530   42.2141  -22.4837 C   0  0  0  0  0  0  0  0  0  0  0  0
    4.3613   41.4983  -22.1129 C   0  0  0  0  0  0  0  0  0  0  0  0
    4.3121   40.6069  -22.5637 C   0  0  0  0  0  0  0  0  0  0  0  0
    4.8545   40.4315  -23.3853 C   0  0  0  0  0  0  0  0  0  0  0  0
    4.8053   39.5403  -23.8360 O   0  0  0  0  0  0  0  0  0  0  0  0
    5.4462   41.1474  -23.7561 C   0  0  0  0  0  0  0  0  0  0  0  0
    5.4954   42.0387  -23.3053 C   0  0  0  0  0  0  0  0  0  0  0  0
    4.2509   38.8695  -23.4886 H   0  0  0  0  0  0  0  0  0  0  0  0
    5.8582   43.4065  -21.6126 C   0  0  0  0  0  0  0  0  0  0  0  0
    6.1659   42.9948  -20.7548 O   0  0  0  0  0  0  0  0  0  0  0  0
    6.4064   44.1192  -22.0501 N   0  0  0  0  0  0  0  0  0  0  0  0
    6.1034   44.5245  -22.8947 H   0  0  0  0  0  0  0  0  0  0  0  0
    7.2624   44.4204  -21.6299 C   0  0  0  0  0  0  0  0  0  0  0  0
    8.1380   44.1579  -22.0353 C   0  0  0  0  0  0  0  0  0  0  0  0
    8.4404   44.5813  -22.8893 O   0  0  0  0  0  0  0  0  0  0  0  0
    8.7111   43.4720  -21.5869 N   0  0  0  0  0  0  0  0  0  0  0  0
    8.4132   43.0552  -20.7462 H   0  0  0  0  0  0  0  0  0  0  0  0
    9.5866   43.2095  -21.9924 C   0  0  0  0  0  0  0  0  0  0  0  0
   10.4269   43.6726  -21.7107 C   0  0  0  0  0  0  0  0  0  0  0  0
   10.5751   43.8978  -20.7477 O   0  0  0  0  0  0  0  0  0  0  0  0
   11.1192   43.9106  -22.3920 N   0  0  0  0  0  0  0  0  0  0  0  0
   10.9734   43.6889  -23.3401 H   0  0  0  0  0  0  0  0  0  0  0  0
   11.9595   44.3737  -22.1104 C   0  0  0  0  0  0  0  0  0  0  0  0
   12.0628   45.3570  -22.2601 C   0  0  0  0  0  0  0  0  0  0  0  0
   12.4187   45.9394  -21.5293 O   0  0  0  0  0  0  0  0  0  0  0  0
   11.8102   45.7579  -23.1407 N   0  0  0  0  0  0  0  0  0  0  0  0
   11.4598   45.1845  -23.8602 H   0  0  0  0  0  0  0  0  0  0  0  0
   11.9134   46.7412  -23.2905 C   0  0  0  0  0  0  0  0  0  0  0  0
   11.1036   47.3211  -23.3798 C   0  0  0  0  0  0  0  0  0  0  0  0
   10.8540   47.9483  -22.6420 O   0  0  0  0  0  0  0  0  0  0  0  0
   10.5434   47.2738  -24.2069 N   0  0  0  0  0  0  0  0  0  0  0  0
   10.7090   46.6822  -24.9958 C   0  0  0  0  0  0  0  0  0  0  0  0
    9.9872   46.8526  -25.6667 C   0  0  0  0  0  0  0  0  0  0  0  0
    9.3756   47.5495  -25.2922 C   0  0  0  0  0  0  0  0  0  0  0  0
    9.7194   47.8099  -24.3900 C   0  0  0  0  0  0  0  0  0  0  0  0
    9.3108   48.4873  -23.7784 C   0  0  0  0  0  0  0  0  0  0  0  0
    8.5700   48.2215  -23.1614 O   0  0  0  0  0  0  0  0  0  0  0  0
    9.6430   49.4305  -23.7836 O   0  0  0  0  0  0  0  0  0  0  0  0
    8.2588   47.3377  -23.1564 H   0  0  0  0  0  0  0  0  0  0  0  0
   12.8265   47.1446  -23.3511 C   0  0  0  0  0  0  0  0  0  0  0  0
   13.3943   46.9779  -24.1571 S   0  0  0  0  0  0  0  0  0  0  0  0
   12.9249   46.2025  -25.1711 H   0  0  0  0  0  0  0  0  0  0  0  0
   12.6966   43.8536  -21.6789 C   0  0  0  0  0  0  0  0  0  0  0  0
   13.3872   43.4022  -22.2439 C   0  0  0  0  0  0  0  0  0  0  0  0
   13.2699   42.5422  -22.7407 C   0  0  0  0  0  0  0  0  0  0  0  0
   14.1265   42.3401  -23.2152 N   0  0  0  0  0  0  0  0  0  0  0  0
   14.7734   43.0751  -23.0118 C   0  0  0  0  0  0  0  0  0  0  0  0
   14.3164   43.7315  -22.4115 N   0  0  0  0  0  0  0  0  0  0  0  0
   14.7120   44.5570  -22.0491 H   0  0  0  0  0  0  0  0  0  0  0  0
    9.6219   42.4838  -22.6796 C   0  0  0  0  0  0  0  0  0  0  0  0
    9.2925   41.5666  -22.4555 C   0  0  0  0  0  0  0  0  0  0  0  0
    9.3389   40.8379  -23.1388 C   0  0  0  0  0  0  0  0  0  0  0  0
   10.0530   40.8535  -23.8387 O   0  0  0  0  0  0  0  0  0  0  0  0
    8.6712   40.0937  -23.1222 N   0  0  0  0  0  0  0  0  0  0  0  0
    7.9681   40.0784  -22.4332 H   0  0  0  0  0  0  0  0  0  0  0  0
    8.7169   39.3763  -23.7949 H   0  0  0  0  0  0  0  0  0  0  0  0
    7.2428   44.9840  -20.8041 C   0  0  0  0  0  0  0  0  0  0  0  0
    7.1450   45.9765  -20.8784 C   0  0  0  0  0  0  0  0  0  0  0  0
    6.9314   46.5201  -20.0666 C   0  0  0  0  0  0  0  0  0  0  0  0
    6.9465   47.5187  -20.1154 C   0  0  0  0  0  0  0  0  0  0  0  0
    6.1031   48.0231  -20.3003 N   0  0  0  0  0  0  0  0  0  0  0  0
    5.2274   47.5189  -20.4393 H   0  0  0  0  0  0  0  0  0  0  0  0
    6.1185   49.0418  -20.3501 H   0  0  0  0  0  0  0  0  0  0  0  0
    3.9949   44.3081  -22.7670 C   0  0  0  0  0  0  0  0  0  0  0  0
    4.6011   44.3305  -23.5621 O   0  0  0  0  0  0  0  0  0  0  0  0
    4.1955   43.6955  -22.0024 N   0  0  0  0  0  0  0  0  0  0  0  0
    3.5988   43.6735  -21.2197 H   0  0  0  0  0  0  0  0  0  0  0  0
    3.1882   44.8982  -22.7365 C   0  0  0  0  0  0  0  0  0  0  0  0
    3.5241   46.5928  -22.6117 C   0  0  0  0  0  0  0  0  0  0  0  0
    3.7999   46.4680  -21.6586 O   0  0  0  0  0  0  0  0  0  0  0  0
    3.2183   45.8079  -23.1506 N   0  0  0  0  0  0  0  0  0  0  0  0
    2.9468   45.9308  -24.0890 H   0  0  0  0  0  0  0  0  0  0  0  0
    3.5541   47.5025  -23.0258 C   0  0  0  0  0  0  0  0  0  0  0  0
    4.8009   47.9802  -24.1292 C   0  0  0  0  0  0  0  0  0  0  0  0
    5.3857   48.2335  -23.3587 O   0  0  0  0  0  0  0  0  0  0  0  0
    3.8851   47.6147  -23.9628 N   0  0  0  0  0  0  0  0  0  0  0  0
    3.3093   47.3652  -24.7214 H   0  0  0  0  0  0  0  0  0  0  0  0
    5.1319   48.0923  -25.0662 C   0  0  0  0  0  0  0  0  0  0  0  0
    5.8056   48.8005  -25.2770 C   0  0  0  0  0  0  0  0  0  0  0  0
    5.4121   46.8700  -26.2608 C   0  0  0  0  0  0  0  0  0  0  0  0
    6.3779   46.8398  -26.0033 O   0  0  0  0  0  0  0  0  0  0  0  0
    4.7891   47.4963  -25.7922 N   0  0  0  0  0  0  0  0  0  0  0  0
    3.8382   47.5260  -26.0457 H   0  0  0  0  0  0  0  0  0  0  0  0
    5.0694   46.2739  -26.9869 C   0  0  0  0  0  0  0  0  0  0  0  0
    5.2918   46.7511  -28.6370 C   0  0  0  0  0  0  0  0  0  0  0  0
    4.5157   47.3769  -28.5606 O   0  0  0  0  0  0  0  0  0  0  0  0
    5.5687   46.1995  -27.8502 N   0  0  0  0  0  0  0  0  0  0  0  0
    6.3328   45.5834  -27.9253 H   0  0  0  0  0  0  0  0  0  0  0  0
    5.7911   46.6767  -29.5003 C   0  0  0  0  0  0  0  0  0  0  0  0
    4.9380   45.8258  -30.7445 C   0  0  0  0  0  0  0  0  0  0  0  0
    5.0799   44.9661  -30.2539 O   0  0  0  0  0  0  0  0  0  0  0  0
    5.2936   46.6812  -30.3676 N   0  0  0  0  0  0  0  0  0  0  0  0
    5.1538   47.5276  -30.8506 H   0  0  0  0  0  0  0  0  0  0  0  0
    4.9423   45.8027  -32.4764 N   0  0  0  0  0  0  0  0  0  0  0  0
    4.4404   45.8303  -31.6119 C   0  0  0  0  0  0  0  0  0  0  0  0
    4.4349   45.8073  -33.3611 H   0  0  0  0  0  0  0  0  0  0  0  0
    5.9618   45.7700  -32.4733 H   0  0  0  0  0  0  0  0  0  0  0  0
    3.4409   45.8624  -31.6149 C   0  0  0  0  0  0  0  0  0  0  0  0
    2.9582   46.4671  -30.9815 O   0  0  0  0  0  0  0  0  0  0  0  0
    2.9242   45.2897  -32.2513 C   0  0  0  0  0  0  0  0  0  0  0  0
    3.4594   47.0227  -30.3641 H   0  0  0  0  0  0  0  0  0  0  0  0
    6.7880   46.5980  -29.4961 C   0  0  0  0  0  0  0  0  0  0  0  0
    7.3510   47.3588  -29.8189 C   0  0  0  0  0  0  0  0  0  0  0  0
    8.3481   47.2824  -29.8091 C   0  0  0  0  0  0  0  0  0  0  0  0
    8.8706   47.6554  -29.0424 O   0  0  0  0  0  0  0  0  0  0  0  0
    8.8226   46.8329  -30.5659 N   0  0  0  0  0  0  0  0  0  0  0  0
    8.3081   46.4657  -31.3207 H   0  0  0  0  0  0  0  0  0  0  0  0
    9.8041   46.7578  -30.5562 H   0  0  0  0  0  0  0  0  0  0  0  0
    4.2274   45.7521  -26.8498 C   0  0  0  0  0  0  0  0  0  0  0  0
    4.2546   44.7526  -26.8396 C   0  0  0  0  0  0  0  0  0  0  0  0
    3.4920   44.2356  -26.4510 C   0  0  0  0  0  0  0  0  0  0  0  0
    2.6205   44.6909  -26.2690 O   0  0  0  0  0  0  0  0  0  0  0  0
    3.6009   43.2632  -26.2443 N   0  0  0  0  0  0  0  0  0  0  0  0
    4.4589   42.8149  -26.4234 H   0  0  0  0  0  0  0  0  0  0  0  0
    2.8500   42.7542  -25.8616 H   0  0  0  0  0  0  0  0  0  0  0  0
    3.2532   48.3000  -22.5030 C   0  0  0  0  0  0  0  0  0  0  0  0
    2.2851   48.5498  -22.4849 O   0  0  0  0  0  0  0  0  0  0  0  0
    1.9932   49.3235  -21.9777 H   0  0  0  0  0  0  0  0  0  0  0  0
    2.3514   44.5786  -22.2918 C   0  0  0  0  0  0  0  0  0  0  0  0
    1.5227   44.4322  -22.8320 C   0  0  0  0  0  0  0  0  0  0  0  0
    0.6540   44.9141  -22.7179 C   0  0  0  0  0  0  0  0  0  0  0  0
    0.0115   44.5579  -23.3966 N   0  0  0  0  0  0  0  0  0  0  0  0
    0.4834   43.8559  -23.9301 C   0  0  0  0  0  0  0  0  0  0  0  0
    1.4173   43.7783  -23.5811 N   0  0  0  0  0  0  0  0  0  0  0  0
    2.1112   43.1655  -23.9163 H   0  0  0  0  0  0  0  0  0  0  0  0
 95 96  1  0  0  0
 95 97  1  0  0  0
 95 98  1  0  0  0
 96 91  1  0  0  0
 96 99  1  0  0  0
 91 92  2  0  0  0
 91 93  1  0  0  0
 93 90  1  0  0  0
 93 94  1  0  0  0
 90103  1  0  0  0
 90 86  1  0  0  0
103104  1  0  0  0
104105  1  0  0  0
105106  2  0  0  0
105107  1  0  0  0
107108  1  0  0  0
107109  1  0  0  0
 86 87  2  0  0  0
 86 88  1  0  0  0
 88 85  1  0  0  0
 88 89  1  0  0  0
 85110  1  0  0  0
 85 81  1  0  0  0
110111  1  0  0  0
111112  1  0  0  0
112113  2  0  0  0
112114  1  0  0  0
114115  1  0  0  0
114116  1  0  0  0
 81 82  2  0  0  0
 81 83  1  0  0  0
 83 79  1  0  0  0
 83 84  1  0  0  0
 79 80  1  0  0  0
 79 75  1  0  0  0
 75 76  2  0  0  0
 75 77  1  0  0  0
 77 74  1  0  0  0
 77 78  1  0  0  0
 74117  1  0  0  0
 74 70  1  0  0  0
117118  1  0  0  0
118119  1  0  0  0
 70 71  2  0  0  0
 70 72  1  0  0  0
 72 69  1  0  0  0
 72 73  1  0  0  0
 69120  1  0  0  0
 69 65  1  0  0  0
120121  1  0  0  0
121125  1  0  0  0
121122  2  0  0  0
122123  1  0  0  0
123124  2  0  0  0
124125  1  0  0  0
125126  1  0  0  0
 65 66  2  0  0  0
 65 67  1  0  0  0
 67  1  1  0  0  0
 67 68  1  0  0  0
  1  2  1  0  0  0
  1 10  1  0  0  0
  2  8  2  0  0  0
  2  3  1  0  0  0
  3  4  2  0  0  0
  4  5  1  0  0  0
  5  6  1  0  0  0
  5  7  2  0  0  0
  6  9  1  0  0  0
  7  8  1  0  0  0
 10 11  2  0  0  0
 10 12  1  0  0  0
 12 14  1  0  0  0
 12 13  1  0  0  0
 14 58  1  0  0  0
 14 15  1  0  0  0
 58 59  1  0  0  0
 59 60  1  0  0  0
 60 61  1  0  0  0
 61 62  1  0  0  0
 62 63  1  0  0  0
 62 64  1  0  0  0
 15 16  2  0  0  0
 15 17  1  0  0  0
 17 19  1  0  0  0
 17 18  1  0  0  0
 19 51  1  0  0  0
 19 20  1  0  0  0
 51 52  1  0  0  0
 52 53  1  0  0  0
 53 54  2  0  0  0
 53 55  1  0  0  0
 55 56  1  0  0  0
 55 57  1  0  0  0
 20 21  2  0  0  0
 20 22  1  0  0  0
 22 24  1  0  0  0
 22 23  1  0  0  0
 24 44  1  0  0  0
 24 25  1  0  0  0
 44 45  1  0  0  0
 45 49  1  0  0  0
 45 46  2  0  0  0
 46 47  1  0  0  0
 47 48  2  0  0  0
 48 49  1  0  0  0
 49 50  1  0  0  0
 25 26  2  0  0  0
 25 27  1  0  0  0
 27 29  1  0  0  0
 27 28  1  0  0  0
 29 41  1  0  0  0
 29 30  1  0  0  0
 41 42  1  0  0  0
 42 43  1  0  0  0
 30 31  2  0  0  0
 30 32  1  0  0  0
 32 36  1  0  0  0
 32 33  1  0  0  0
 33 34  1  0  0  0
 34 35  1  0  0  0
 35 36  1  0  0  0
 36 37  1  0  0  0
 37 38  1  0  0  0
 37 39  2  0  0  0
 38 40  1  0  0  0
 99100  1  0  0  0
 99101  1  0  0  0
100102  1  0  0  0
M  END
> <minimizedAffinity>
-5.04773

$$$$



126129  0  0  0  0  0  0  0  0999 V2000
    6.5450   47.4018  -28.5696 C   0  0  0  0  0  0  0  0  0  0  0  0
    7.0664   46.8564  -29.2257 C   0  0  0  0  0  0  0  0  0  0  0  0
    6.9854   45.8597  -29.2236 C   0  0  0  0  0  0  0  0  0  0  0  0
    7.5068   45.3142  -29.8799 C   0  0  0  0  0  0  0  0  0  0  0  0
    8.1093   45.7655  -30.5382 C   0  0  0  0  0  0  0  0  0  0  0  0
    8.6307   45.2200  -31.1944 O   0  0  0  0  0  0  0  0  0  0  0  0
    8.1903   46.7622  -30.5403 C   0  0  0  0  0  0  0  0  0  0  0  0
    7.6689   47.3076  -29.8841 C   0  0  0  0  0  0  0  0  0  0  0  0
    8.5548   44.2861  -31.1924 H   0  0  0  0  0  0  0  0  0  0  0  0
    5.5893   47.6293  -28.7562 C   0  0  0  0  0  0  0  0  0  0  0  0
    4.9665   47.8310  -28.0002 O   0  0  0  0  0  0  0  0  0  0  0  0
    5.2563   47.6551  -29.6987 N   0  0  0  0  0  0  0  0  0  0  0  0
    5.8694   47.4565  -30.4430 H   0  0  0  0  0  0  0  0  0  0  0  0
    4.3006   47.8826  -29.8854 C   0  0  0  0  0  0  0  0  0  0  0  0
    3.5802   47.2187  -29.6848 C   0  0  0  0  0  0  0  0  0  0  0  0
    2.8628   47.4433  -29.0254 O   0  0  0  0  0  0  0  0  0  0  0  0
    3.5772   46.3302  -30.1437 N   0  0  0  0  0  0  0  0  0  0  0  0
    4.2835   46.1091  -30.7929 H   0  0  0  0  0  0  0  0  0  0  0  0
    2.8568   45.6663  -29.9431 C   0  0  0  0  0  0  0  0  0  0  0  0
    2.0349   45.6332  -30.5118 C   0  0  0  0  0  0  0  0  0  0  0  0
    1.1313   45.7030  -30.0892 O   0  0  0  0  0  0  0  0  0  0  0  0
    2.1166   45.5303  -31.5032 N   0  0  0  0  0  0  0  0  0  0  0  0
    3.0062   45.4616  -31.9193 H   0  0  0  0  0  0  0  0  0  0  0  0
    1.2948   45.4972  -32.0719 C   0  0  0  0  0  0  0  0  0  0  0  0
    0.9675   44.6216  -32.4272 C   0  0  0  0  0  0  0  0  0  0  0  0
    1.4463   44.1795  -33.1856 O   0  0  0  0  0  0  0  0  0  0  0  0
    0.1616   44.1882  -32.0240 N   0  0  0  0  0  0  0  0  0  0  0  0
   -0.3097   44.6236  -31.2772 H   0  0  0  0  0  0  0  0  0  0  0  0
   -0.1657   43.3126  -32.3792 C   0  0  0  0  0  0  0  0  0  0  0  0
    0.0405   42.4657  -31.8891 C   0  0  0  0  0  0  0  0  0  0  0  0
    0.6036   41.7618  -32.3221 O   0  0  0  0  0  0  0  0  0  0  0  0
   -0.3166   42.3226  -30.9660 N   0  0  0  0  0  0  0  0  0  0  0  0
   -0.8857   42.9629  -30.4502 C   0  0  0  0  0  0  0  0  0  0  0  0
   -1.0879   42.5501  -29.5621 C   0  0  0  0  0  0  0  0  0  0  0  0
   -0.6438   41.6547  -29.5291 C   0  0  0  0  0  0  0  0  0  0  0  0
   -0.1671   41.5141  -30.3968 C   0  0  0  0  0  0  0  0  0  0  0  0
    0.3656   40.7069  -30.6507 C   0  0  0  0  0  0  0  0  0  0  0  0
    1.3630   40.7236  -30.5804 O   0  0  0  0  0  0  0  0  0  0  0  0
   -0.0990   39.8828  -30.9748 O   0  0  0  0  0  0  0  0  0  0  0  0
    1.7984   41.4957  -30.2767 H   0  0  0  0  0  0  0  0  0  0  0  0
   -0.6991   43.2839  -33.2247 C   0  0  0  0  0  0  0  0  0  0  0  0
   -1.6517   43.5882  -33.2254 S   0  0  0  0  0  0  0  0  0  0  0  0
   -2.2218   44.0411  -32.0767 H   0  0  0  0  0  0  0  0  0  0  0  0
    0.8002   46.3397  -32.2853 C   0  0  0  0  0  0  0  0  0  0  0  0
    1.1470   46.9582  -32.9904 C   0  0  0  0  0  0  0  0  0  0  0  0
    1.6572   47.8035  -32.8317 C   0  0  0  0  0  0  0  0  0  0  0  0
    1.8700   48.2077  -33.7212 N   0  0  0  0  0  0  0  0  0  0  0  0
    1.4913   47.6122  -34.4299 C   0  0  0  0  0  0  0  0  0  0  0  0
    1.0444   46.8400  -33.9781 N   0  0  0  0  0  0  0  0  0  0  0  0
    0.5843   46.0943  -34.4270 H   0  0  0  0  0  0  0  0  0  0  0  0
    2.9583   45.0355  -29.1738 C   0  0  0  0  0  0  0  0  0  0  0  0
    3.5663   44.2455  -29.2519 C   0  0  0  0  0  0  0  0  0  0  0  0
    3.4715   43.4770  -28.6190 C   0  0  0  0  0  0  0  0  0  0  0  0
    2.8615   42.7169  -28.8433 O   0  0  0  0  0  0  0  0  0  0  0  0
    3.9866   43.4686  -27.7620 N   0  0  0  0  0  0  0  0  0  0  0  0
    4.5871   44.2169  -27.5413 H   0  0  0  0  0  0  0  0  0  0  0  0
    3.8933   42.7121  -27.1389 H   0  0  0  0  0  0  0  0  0  0  0  0
    4.0653   48.7740  -30.2727 C   0  0  0  0  0  0  0  0  0  0  0  0
    4.5627   49.1208  -31.0679 C   0  0  0  0  0  0  0  0  0  0  0  0
    4.6420   50.1063  -31.2174 C   0  0  0  0  0  0  0  0  0  0  0  0
    5.4205   50.4739  -31.7260 C   0  0  0  0  0  0  0  0  0  0  0  0
    6.3470   50.3738  -31.3633 N   0  0  0  0  0  0  0  0  0  0  0  0
    6.4979   49.8967  -30.4744 H   0  0  0  0  0  0  0  0  0  0  0  0
    7.1411   50.7487  -31.8821 H   0  0  0  0  0  0  0  0  0  0  0  0
    7.2627   48.6748  -27.6398 C   0  0  0  0  0  0  0  0  0  0  0  0
    7.1119   49.3119  -28.3958 O   0  0  0  0  0  0  0  0  0  0  0  0
    6.9793   47.7197  -27.7268 N   0  0  0  0  0  0  0  0  0  0  0  0
    7.1277   47.0925  -26.9826 H   0  0  0  0  0  0  0  0  0  0  0  0
    7.6970   48.9927  -26.7970 C   0  0  0  0  0  0  0  0  0  0  0  0
    6.8666   48.8984  -25.2800 C   0  0  0  0  0  0  0  0  0  0  0  0
    6.3886   49.7516  -25.4886 O   0  0  0  0  0  0  0  0  0  0  0  0
    7.5208   48.5189  -25.9342 N   0  0  0  0  0  0  0  0  0  0  0  0
    7.9914   47.6789  -25.7289 H   0  0  0  0  0  0  0  0  0  0  0  0
    6.6903   48.4246  -24.4172 C   0  0  0  0  0  0  0  0  0  0  0  0
    5.3708   47.3685  -24.0385 C   0  0  0  0  0  0  0  0  0  0  0  0
    5.9312   46.5789  -24.2884 O   0  0  0  0  0  0  0  0  0  0  0  0
    5.7504   48.2914  -24.1028 N   0  0  0  0  0  0  0  0  0  0  0  0
    5.1989   49.0688  -23.8568 H   0  0  0  0  0  0  0  0  0  0  0  0
    4.4309   47.2352  -23.7241 C   0  0  0  0  0  0  0  0  0  0  0  0
    4.1101   47.6970  -22.8972 C   0  0  0  0  0  0  0  0  0  0  0  0
    2.8605   46.9129  -24.3795 C   0  0  0  0  0  0  0  0  0  0  0  0
    2.5281   47.7805  -24.0097 O   0  0  0  0  0  0  0  0  0  0  0  0
    3.8119   46.6402  -24.2367 N   0  0  0  0  0  0  0  0  0  0  0  0
    4.1392   45.7860  -24.6007 H   0  0  0  0  0  0  0  0  0  0  0  0
    2.2413   46.3178  -24.8921 C   0  0  0  0  0  0  0  0  0  0  0  0
    2.1031   44.6861  -24.3280 C   0  0  0  0  0  0  0  0  0  0  0  0
    1.5431   44.9988  -23.5608 O   0  0  0  0  0  0  0  0  0  0  0  0
    2.4522   45.3456  -24.9936 N   0  0  0  0  0  0  0  0  0  0  0  0
    3.0035   45.0378  -25.7490 H   0  0  0  0  0  0  0  0  0  0  0  0
    2.3140   43.7139  -24.4295 C   0  0  0  0  0  0  0  0  0  0  0  0
    3.8905   43.1224  -24.0236 C   0  0  0  0  0  0  0  0  0  0  0  0
    4.2336   43.4272  -24.9120 O   0  0  0  0  0  0  0  0  0  0  0  0
    2.9306   43.2657  -23.7823 N   0  0  0  0  0  0  0  0  0  0  0  0
    2.5927   42.9656  -22.9076 H   0  0  0  0  0  0  0  0  0  0  0  0
    4.3091   41.7475  -23.0568 N   0  0  0  0  0  0  0  0  0  0  0  0
    4.5071   42.6742  -23.3763 C   0  0  0  0  0  0  0  0  0  0  0  0
    4.9380   41.2904  -22.3967 H   0  0  0  0  0  0  0  0  0  0  0  0
    3.4782   41.2595  -23.3912 H   0  0  0  0  0  0  0  0  0  0  0  0
    5.3217   43.1527  -23.0485 C   0  0  0  0  0  0  0  0  0  0  0  0
    5.2414   44.0743  -22.6687 O   0  0  0  0  0  0  0  0  0  0  0  0
    6.2167   42.7096  -23.1006 C   0  0  0  0  0  0  0  0  0  0  0  0
    4.3732   44.5040  -22.6182 H   0  0  0  0  0  0  0  0  0  0  0  0
    1.9082   43.1898  -25.1783 C   0  0  0  0  0  0  0  0  0  0  0  0
    1.0364   42.7187  -25.0438 C   0  0  0  0  0  0  0  0  0  0  0  0
    0.4581   42.5029  -25.8306 C   0  0  0  0  0  0  0  0  0  0  0  0
   -0.3146   41.8768  -25.7265 O   0  0  0  0  0  0  0  0  0  0  0  0
    0.6525   42.9133  -26.7216 N   0  0  0  0  0  0  0  0  0  0  0  0
    1.4132   43.5298  -26.8241 H   0  0  0  0  0  0  0  0  0  0  0  0
    0.0831   42.7009  -27.4961 H   0  0  0  0  0  0  0  0  0  0  0  0
    1.4114   46.6951  -25.3031 C   0  0  0  0  0  0  0  0  0  0  0  0
    1.3084   46.7102  -26.2976 C   0  0  0  0  0  0  0  0  0  0  0  0
    0.3960   46.7452  -26.7053 C   0  0  0  0  0  0  0  0  0  0  0  0
   -0.3776   46.3182  -26.2370 O   0  0  0  0  0  0  0  0  0  0  0  0
    0.2571   47.2073  -27.5812 N   0  0  0  0  0  0  0  0  0  0  0  0
    1.0186   47.6277  -28.0422 H   0  0  0  0  0  0  0  0  0  0  0  0
   -0.6413   47.2418  -27.9826 H   0  0  0  0  0  0  0  0  0  0  0  0
    7.4540   48.0841  -23.8687 C   0  0  0  0  0  0  0  0  0  0  0  0
    7.9571   48.7077  -23.2704 O   0  0  0  0  0  0  0  0  0  0  0  0
    8.6979   48.3774  -22.7383 H   0  0  0  0  0  0  0  0  0  0  0  0
    8.3076   49.7845  -26.8171 C   0  0  0  0  0  0  0  0  0  0  0  0
    9.2599   49.6890  -26.5273 C   0  0  0  0  0  0  0  0  0  0  0  0
    9.9585   49.1334  -26.9779 C   0  0  0  0  0  0  0  0  0  0  0  0
   10.8112   49.2334  -26.4650 N   0  0  0  0  0  0  0  0  0  0  0  0
   10.6394   49.8509  -25.6974 C   0  0  0  0  0  0  0  0  0  0  0  0
    9.6806   50.1324  -25.7359 N   0  0  0  0  0  0  0  0  0  0  0  0
    9.2301   50.7396  -25.1054 H   0  0  0  0  0  0  0  0  0  0  0  0
 95 96  1  0  0  0
 95 97  1  0  0  0
 95 98  1  0  0  0
 96 91  1  0  0  0
 96 99  1  0  0  0
 91 92  2  0  0  0
 91 93  1  0  0  0
 93 90  1  0  0  0
 93 94  1  0  0  0
 90103  1  0  0  0
 90 86  1  0  0  0
103104  1  0  0  0
104105  1  0  0  0
105106  2  0  0  0
105107  1  0  0  0
107108  1  0  0  0
107109  1  0  0  0
 86 87  2  0  0  0
 86 88  1  0  0  0
 88 85  1  0  0  0
 88 89  1  0  0  0
 85110  1  0  0  0
 85 81  1  0  0  0
110111  1  0  0  0
111112  1  0  0  0
112113  2  0  0  0
112114  1  0  0  0
114115  1  0  0  0
114116  1  0  0  0
 81 82  2  0  0  0
 81 83  1  0  0  0
 83 79  1  0  0  0
 83 84  1  0  0  0
 79 80  1  0  0  0
 79 75  1  0  0  0
 75 76  2  0  0  0
 75 77  1  0  0  0
 77 74  1  0  0  0
 77 78  1  0  0  0
 74117  1  0  0  0
 74 70  1  0  0  0
117118  1  0  0  0
118119  1  0  0  0
 70 71  2  0  0  0
 70 72  1  0  0  0
 72 69  1  0  0  0
 72 73  1  0  0  0
 69120  1  0  0  0
 69 65  1  0  0  0
120121  1  0  0  0
121125  1  0  0  0
121122  2  0  0  0
122123  1  0  0  0
123124  2  0  0  0
124125  1  0  0  0
125126  1  0  0  0
 65 66  2  0  0  0
 65 67  1  0  0  0
 67  1  1  0  0  0
 67 68  1  0  0  0
  1  2  1  0  0  0
  1 10  1  0  0  0
  2  8  2  0  0  0
  2  3  1  0  0  0
  3  4  2  0  0  0
  4  5  1  0  0  0
  5  6  1  0  0  0
  5  7  2  0  0  0
  6  9  1  0  0  0
  7  8  1  0  0  0
 10 11  2  0  0  0
 10 12  1  0  0  0
 12 14  1  0  0  0
 12 13  1  0  0  0
 14 58  1  0  0  0
 14 15  1  0  0  0
 58 59  1  0  0  0
 59 60  1  0  0  0
 60 61  1  0  0  0
 61 62  1  0  0  0
 62 63  1  0  0  0
 62 64  1  0  0  0
 15 16  2  0  0  0
 15 17  1  0  0  0
 17 19  1  0  0  0
 17 18  1  0  0  0
 19 51  1  0  0  0
 19 20  1  0  0  0
 51 52  1  0  0  0
 52 53  1  0  0  0
 53 54  2  0  0  0
 53 55  1  0  0  0
 55 56  1  0  0  0
 55 57  1  0  0  0
 20 21  2  0  0  0
 20 22  1  0  0  0
 22 24  1  0  0  0
 22 23  1  0  0  0
 24 44  1  0  0  0
 24 25  1  0  0  0
 44 45  1  0  0  0
 45 49  1  0  0  0
 45 46  2  0  0  0
 46 47  1  0  0  0
 47 48  2  0  0  0
 48 49  1  0  0  0
 49 50  1  0  0  0
 25 26  2  0  0  0
 25 27  1  0  0  0
 27 29  1  0  0  0
 27 28  1  0  0  0
 29 41  1  0  0  0
 29 30  1  0  0  0
 41 42  1  0  0  0
 42 43  1  0  0  0
 30 31  2  0  0  0
 30 32  1  0  0  0
 32 36  1  0  0  0
 32 33  1  0  0  0
 33 34  1  0  0  0
 34 35  1  0  0  0
 35 36  1  0  0  0
 36 37  1  0  0  0
 37 38  1  0  0  0
 37 39  2  0  0  0
 38 40  1  0  0  0
 99100  1  0  0  0
 99101  1  0  0  0
100102  1  0  0  0
M  END
> <minimizedAffinity>
-4.99117

$$$$



126129  0  0  0  0  0  0  0  0999 V2000
    7.5329   48.5233  -29.0718 C   0  0  0  0  0  0  0  0  0  0  0  0
    8.2229   48.0811  -29.6448 C   0  0  0  0  0  0  0  0  0  0  0  0
    8.2407   47.0846  -29.7269 C   0  0  0  0  0  0  0  0  0  0  0  0
    8.9308   46.6424  -30.2999 C   0  0  0  0  0  0  0  0  0  0  0  0
    9.6029   47.1966  -30.7909 C   0  0  0  0  0  0  0  0  0  0  0  0
   10.2929   46.7544  -31.3639 O   0  0  0  0  0  0  0  0  0  0  0  0
    9.5851   48.1931  -30.7088 C   0  0  0  0  0  0  0  0  0  0  0  0
    8.8952   48.6353  -30.1358 C   0  0  0  0  0  0  0  0  0  0  0  0
   10.3096   45.8207  -31.4408 H   0  0  0  0  0  0  0  0  0  0  0  0
    6.6193   48.7017  -29.4371 C   0  0  0  0  0  0  0  0  0  0  0  0
    5.8544   48.8635  -28.8137 O   0  0  0  0  0  0  0  0  0  0  0  0
    6.4707   48.7184  -30.4258 N   0  0  0  0  0  0  0  0  0  0  0  0
    7.2238   48.5591  -31.0396 H   0  0  0  0  0  0  0  0  0  0  0  0
    5.5570   48.8968  -30.7912 C   0  0  0  0  0  0  0  0  0  0  0  0
    4.8642   48.1758  -30.7794 C   0  0  0  0  0  0  0  0  0  0  0  0
    3.9555   48.3616  -30.4055 O   0  0  0  0  0  0  0  0  0  0  0  0
    5.0801   47.2690  -31.1414 N   0  0  0  0  0  0  0  0  0  0  0  0
    5.9746   47.0861  -31.5094 H   0  0  0  0  0  0  0  0  0  0  0  0
    4.3872   46.5480  -31.1296 C   0  0  0  0  0  0  0  0  0  0  0  0
    3.8856   46.3229  -31.9648 C   0  0  0  0  0  0  0  0  0  0  0  0
    4.3839   46.1113  -32.8057 O   0  0  0  0  0  0  0  0  0  0  0  0
    2.8857   46.3093  -31.9593 N   0  0  0  0  0  0  0  0  0  0  0  0
    2.3951   46.5176  -31.1315 H   0  0  0  0  0  0  0  0  0  0  0  0
    2.3840   46.0842  -32.7946 C   0  0  0  0  0  0  0  0  0  0  0  0
    1.8853   46.7982  -33.2861 C   0  0  0  0  0  0  0  0  0  0  0  0
    1.9360   46.8472  -34.2835 O   0  0  0  0  0  0  0  0  0  0  0  0
    1.3360   47.4631  -32.7800 N   0  0  0  0  0  0  0  0  0  0  0  0
    1.2862   47.4149  -31.7980 H   0  0  0  0  0  0  0  0  0  0  0  0
    0.8373   48.1771  -33.2715 C   0  0  0  0  0  0  0  0  0  0  0  0
    1.2490   49.0800  -33.3950 C   0  0  0  0  0  0  0  0  0  0  0  0
    1.5280   49.3819  -34.3065 O   0  0  0  0  0  0  0  0  0  0  0  0
    1.3816   49.6810  -32.6068 N   0  0  0  0  0  0  0  0  0  0  0  0
    1.1370   49.4715  -31.6601 C   0  0  0  0  0  0  0  0  0  0  0  0
    1.3864   50.2581  -31.0952 C   0  0  0  0  0  0  0  0  0  0  0  0
    1.7852   50.9537  -31.6928 C   0  0  0  0  0  0  0  0  0  0  0  0
    1.7822   50.5970  -32.6270 C   0  0  0  0  0  0  0  0  0  0  0  0
    2.1205   51.0728  -33.4388 C   0  0  0  0  0  0  0  0  0  0  0  0
    3.0834   50.9970  -33.6980 O   0  0  0  0  0  0  0  0  0  0  0  0
    1.4959   51.6246  -33.9916 O   0  0  0  0  0  0  0  0  0  0  0  0
    3.6686   50.4800  -33.1801 H   0  0  0  0  0  0  0  0  0  0  0  0
   -0.0732   47.9881  -33.6395 C   0  0  0  0  0  0  0  0  0  0  0  0
   -0.8196   47.7376  -33.0230 S   0  0  0  0  0  0  0  0  0  0  0  0
   -0.5967   47.6539  -31.6841 H   0  0  0  0  0  0  0  0  0  0  0  0
    2.3811   45.1452  -33.1384 C   0  0  0  0  0  0  0  0  0  0  0  0
    1.6268   44.5306  -32.9076 C   0  0  0  0  0  0  0  0  0  0  0  0
    1.4323   44.1529  -32.0022 C   0  0  0  0  0  0  0  0  0  0  0  0
    0.6199   43.5747  -32.0766 N   0  0  0  0  0  0  0  0  0  0  0  0
    0.3123   43.5948  -33.0280 C   0  0  0  0  0  0  0  0  0  0  0  0
    0.9347   44.1857  -33.5415 N   0  0  0  0  0  0  0  0  0  0  0  0
    0.8761   44.3915  -34.5024 H   0  0  0  0  0  0  0  0  0  0  0  0
    4.1961   46.0521  -30.2825 C   0  0  0  0  0  0  0  0  0  0  0  0
    4.8350   45.3558  -29.9557 C   0  0  0  0  0  0  0  0  0  0  0  0
    4.6948   44.9282  -29.0627 C   0  0  0  0  0  0  0  0  0  0  0  0
    4.0063   44.2110  -28.9543 O   0  0  0  0  0  0  0  0  0  0  0  0
    5.2430   45.2177  -28.2780 N   0  0  0  0  0  0  0  0  0  0  0  0
    5.9207   45.9237  -28.3848 H   0  0  0  0  0  0  0  0  0  0  0  0
    5.1049   44.7967  -27.3989 H   0  0  0  0  0  0  0  0  0  0  0  0
    5.3362   49.7962  -31.1684 C   0  0  0  0  0  0  0  0  0  0  0  0
    5.9495   50.2242  -31.8324 C   0  0  0  0  0  0  0  0  0  0  0  0
    6.0304   51.2203  -31.8686 C   0  0  0  0  0  0  0  0  0  0  0  0
    6.7432   51.6440  -32.4275 C   0  0  0  0  0  0  0  0  0  0  0  0
    7.2088   52.4677  -32.1038 N   0  0  0  0  0  0  0  0  0  0  0  0
    6.9566   52.8757  -31.2035 H   0  0  0  0  0  0  0  0  0  0  0  0
    7.9358   52.8999  -32.6738 H   0  0  0  0  0  0  0  0  0  0  0  0
    8.0369   49.7255  -27.9313 C   0  0  0  0  0  0  0  0  0  0  0  0
    8.0935   50.4001  -28.6674 O   0  0  0  0  0  0  0  0  0  0  0  0
    7.7566   48.7872  -28.1335 N   0  0  0  0  0  0  0  0  0  0  0  0
    7.7008   48.1231  -27.4089 H   0  0  0  0  0  0  0  0  0  0  0  0
    8.2605   49.9893  -26.9930 C   0  0  0  0  0  0  0  0  0  0  0  0
    6.9467   50.4979  -25.9854 C   0  0  0  0  0  0  0  0  0  0  0  0
    6.9263   51.3795  -26.4569 O   0  0  0  0  0  0  0  0  0  0  0  0
    7.6138   49.8028  -26.2535 N   0  0  0  0  0  0  0  0  0  0  0  0
    7.6338   48.9347  -25.7894 H   0  0  0  0  0  0  0  0  0  0  0  0
    6.2999   50.3113  -25.2459 C   0  0  0  0  0  0  0  0  0  0  0  0
    4.7562   49.5662  -25.4945 C   0  0  0  0  0  0  0  0  0  0  0  0
    5.1792   48.6635  -25.4151 O   0  0  0  0  0  0  0  0  0  0  0  0
    5.3166   50.3901  -25.4099 N   0  0  0  0  0  0  0  0  0  0  0  0
    4.9003   51.2787  -25.4881 H   0  0  0  0  0  0  0  0  0  0  0  0
    3.7729   49.6450  -25.6585 C   0  0  0  0  0  0  0  0  0  0  0  0
    3.4129   50.4211  -26.1761 C   0  0  0  0  0  0  0  0  0  0  0  0
    2.4945   48.5055  -25.9175 C   0  0  0  0  0  0  0  0  0  0  0  0
    2.4627   48.7608  -26.8838 O   0  0  0  0  0  0  0  0  0  0  0  0
    3.1496   48.9476  -25.3048 N   0  0  0  0  0  0  0  0  0  0  0  0
    3.1809   48.6962  -24.3534 H   0  0  0  0  0  0  0  0  0  0  0  0
    1.8711   47.8081  -25.5638 C   0  0  0  0  0  0  0  0  0  0  0  0
    2.2869   46.1295  -25.4662 C   0  0  0  0  0  0  0  0  0  0  0  0
    2.7063   46.2855  -24.5719 O   0  0  0  0  0  0  0  0  0  0  0  0
    1.8692   46.8908  -25.9621 N   0  0  0  0  0  0  0  0  0  0  0  0
    1.4563   46.7373  -26.8425 H   0  0  0  0  0  0  0  0  0  0  0  0
    2.2850   45.2123  -25.8645 C   0  0  0  0  0  0  0  0  0  0  0  0
    1.1248   44.7303  -27.0568 C   0  0  0  0  0  0  0  0  0  0  0  0
    0.4736   44.5051  -26.3321 O   0  0  0  0  0  0  0  0  0  0  0  0
    2.0305   45.0839  -26.8229 N   0  0  0  0  0  0  0  0  0  0  0  0
    2.6717   45.3056  -27.5364 H   0  0  0  0  0  0  0  0  0  0  0  0
    0.9063   45.3740  -28.6499 N   0  0  0  0  0  0  0  0  0  0  0  0
    0.8704   44.6019  -28.0154 C   0  0  0  0  0  0  0  0  0  0  0  0
    0.6467   45.2431  -29.6276 H   0  0  0  0  0  0  0  0  0  0  0  0
    1.2024   46.2924  -28.3194 H   0  0  0  0  0  0  0  0  0  0  0  0
    0.5800   43.7015  -28.3393 C   0  0  0  0  0  0  0  0  0  0  0  0
    1.2398   42.9518  -28.3902 O   0  0  0  0  0  0  0  0  0  0  0  0
   -0.3701   43.5509  -28.6124 C   0  0  0  0  0  0  0  0  0  0  0  0
    2.1614   43.0980  -28.1253 H   0  0  0  0  0  0  0  0  0  0  0  0
    2.5377   44.4234  -25.3043 C   0  0  0  0  0  0  0  0  0  0  0  0
    3.3898   43.9329  -25.4868 C   0  0  0  0  0  0  0  0  0  0  0  0
    3.5972   43.0893  -24.9913 C   0  0  0  0  0  0  0  0  0  0  0  0
    2.9112   42.3644  -24.9293 O   0  0  0  0  0  0  0  0  0  0  0  0
    4.4906   42.9708  -24.5580 N   0  0  0  0  0  0  0  0  0  0  0  0
    5.1659   43.6846  -24.6191 H   0  0  0  0  0  0  0  0  0  0  0  0
    4.6948   42.1404  -24.0702 H   0  0  0  0  0  0  0  0  0  0  0  0
    1.2496   48.0279  -24.8119 C   0  0  0  0  0  0  0  0  0  0  0  0
    0.2869   48.2229  -24.9997 C   0  0  0  0  0  0  0  0  0  0  0  0
   -0.3151   48.5259  -24.2610 C   0  0  0  0  0  0  0  0  0  0  0  0
   -0.7238   49.4381  -24.2914 O   0  0  0  0  0  0  0  0  0  0  0  0
   -0.5086   47.9168  -23.4918 N   0  0  0  0  0  0  0  0  0  0  0  0
   -0.1062   47.0187  -23.4619 H   0  0  0  0  0  0  0  0  0  0  0  0
   -1.1014   48.2151  -22.7646 H   0  0  0  0  0  0  0  0  0  0  0  0
    6.6365   50.0459  -24.3425 C   0  0  0  0  0  0  0  0  0  0  0  0
    6.9533   50.7453  -23.7017 O   0  0  0  0  0  0  0  0  0  0  0  0
    7.2798   50.4878  -22.8252 H   0  0  0  0  0  0  0  0  0  0  0  0
    9.1310   50.4398  -26.7943 C   0  0  0  0  0  0  0  0  0  0  0  0
    9.8226   49.9709  -26.2449 C   0  0  0  0  0  0  0  0  0  0  0  0
   10.2894   49.1207  -26.4883 C   0  0  0  0  0  0  0  0  0  0  0  0
   10.9242   48.8942  -25.7496 N   0  0  0  0  0  0  0  0  0  0  0  0
   10.8497   49.6045  -25.0496 C   0  0  0  0  0  0  0  0  0  0  0  0
   10.1689   50.2699  -25.3558 N   0  0  0  0  0  0  0  0  0  0  0  0
    9.8888   51.0776  -24.8675 H   0  0  0  0  0  0  0  0  0  0  0  0
 95 96  1  0  0  0
 95 97  1  0  0  0
 95 98  1  0  0  0
 96 91  1  0  0  0
 96 99  1  0  0  0
 91 92  2  0  0  0
 91 93  1  0  0  0
 93 90  1  0  0  0
 93 94  1  0  0  0
 90103  1  0  0  0
 90 86  1  0  0  0
103104  1  0  0  0
104105  1  0  0  0
105106  2  0  0  0
105107  1  0  0  0
107108  1  0  0  0
107109  1  0  0  0
 86 87  2  0  0  0
 86 88  1  0  0  0
 88 85  1  0  0  0
 88 89  1  0  0  0
 85110  1  0  0  0
 85 81  1  0  0  0
110111  1  0  0  0
111112  1  0  0  0
112113  2  0  0  0
112114  1  0  0  0
114115  1  0  0  0
114116  1  0  0  0
 81 82  2  0  0  0
 81 83  1  0  0  0
 83 79  1  0  0  0
 83 84  1  0  0  0
 79 80  1  0  0  0
 79 75  1  0  0  0
 75 76  2  0  0  0
 75 77  1  0  0  0
 77 74  1  0  0  0
 77 78  1  0  0  0
 74117  1  0  0  0
 74 70  1  0  0  0
117118  1  0  0  0
118119  1  0  0  0
 70 71  2  0  0  0
 70 72  1  0  0  0
 72 69  1  0  0  0
 72 73  1  0  0  0
 69120  1  0  0  0
 69 65  1  0  0  0
120121  1  0  0  0
121125  1  0  0  0
121122  2  0  0  0
122123  1  0  0  0
123124  2  0  0  0
124125  1  0  0  0
125126  1  0  0  0
 65 66  2  0  0  0
 65 67  1  0  0  0
 67  1  1  0  0  0
 67 68  1  0  0  0
  1  2  1  0  0  0
  1 10  1  0  0  0
  2  8  2  0  0  0
  2  3  1  0  0  0
  3  4  2  0  0  0
  4  5  1  0  0  0
  5  6  1  0  0  0
  5  7  2  0  0  0
  6  9  1  0  0  0
  7  8  1  0  0  0
 10 11  2  0  0  0
 10 12  1  0  0  0
 12 14  1  0  0  0
 12 13  1  0  0  0
 14 58  1  0  0  0
 14 15  1  0  0  0
 58 59  1  0  0  0
 59 60  1  0  0  0
 60 61  1  0  0  0
 61 62  1  0  0  0
 62 63  1  0  0  0
 62 64  1  0  0  0
 15 16  2  0  0  0
 15 17  1  0  0  0
 17 19  1  0  0  0
 17 18  1  0  0  0
 19 51  1  0  0  0
 19 20  1  0  0  0
 51 52  1  0  0  0
 52 53  1  0  0  0
 53 54  2  0  0  0
 53 55  1  0  0  0
 55 56  1  0  0  0
 55 57  1  0  0  0
 20 21  2  0  0  0
 20 22  1  0  0  0
 22 24  1  0  0  0
 22 23  1  0  0  0
 24 44  1  0  0  0
 24 25  1  0  0  0
 44 45  1  0  0  0
 45 49  1  0  0  0
 45 46  2  0  0  0
 46 47  1  0  0  0
 47 48  2  0  0  0
 48 49  1  0  0  0
 49 50  1  0  0  0
 25 26  2  0  0  0
 25 27  1  0  0  0
 27 29  1  0  0  0
 27 28  1  0  0  0
 29 41  1  0  0  0
 29 30  1  0  0  0
 41 42  1  0  0  0
 42 43  1  0  0  0
 30 31  2  0  0  0
 30 32  1  0  0  0
 32 36  1  0  0  0
 32 33  1  0  0  0
 33 34  1  0  0  0
 34 35  1  0  0  0
 35 36  1  0  0  0
 36 37  1  0  0  0
 37 38  1  0  0  0
 37 39  2  0  0  0
 38 40  1  0  0  0
 99100  1  0  0  0
 99101  1  0  0  0
100102  1  0  0  0
M  END
> <minimizedAffinity>
-4.96613

$$$$



126129  0  0  0  0  0  0  0  0999 V2000
    5.1893   43.2236  -22.7498 C   0  0  0  0  0  0  0  0  0  0  0  0
    5.1534   42.2539  -22.9914 C   0  0  0  0  0  0  0  0  0  0  0  0
    4.3538   41.7064  -22.7447 C   0  0  0  0  0  0  0  0  0  0  0  0
    4.3180   40.7366  -22.9863 C   0  0  0  0  0  0  0  0  0  0  0  0
    5.0817   40.3144  -23.4746 C   0  0  0  0  0  0  0  0  0  0  0  0
    5.0459   39.3447  -23.7161 O   0  0  0  0  0  0  0  0  0  0  0  0
    5.8813   40.8619  -23.7213 C   0  0  0  0  0  0  0  0  0  0  0  0
    5.9172   41.8316  -23.4797 C   0  0  0  0  0  0  0  0  0  0  0  0
    4.2966   38.8317  -23.4849 H   0  0  0  0  0  0  0  0  0  0  0  0
    5.9859   43.5899  -22.2690 C   0  0  0  0  0  0  0  0  0  0  0  0
    6.1899   43.2886  -21.3376 O   0  0  0  0  0  0  0  0  0  0  0  0
    6.5785   44.2576  -22.7197 N   0  0  0  0  0  0  0  0  0  0  0  0
    6.3776   44.5542  -23.6367 H   0  0  0  0  0  0  0  0  0  0  0  0
    7.3752   44.6240  -22.2388 C   0  0  0  0  0  0  0  0  0  0  0  0
    8.2962   44.3532  -22.5187 C   0  0  0  0  0  0  0  0  0  0  0  0
    8.6811   44.7000  -23.3740 O   0  0  0  0  0  0  0  0  0  0  0  0
    8.8324   43.7357  -21.9432 N   0  0  0  0  0  0  0  0  0  0  0  0
    8.4534   43.3942  -21.1012 H   0  0  0  0  0  0  0  0  0  0  0  0
    9.7534   43.4649  -22.2230 C   0  0  0  0  0  0  0  0  0  0  0  0
   10.5481   43.9622  -21.8751 C   0  0  0  0  0  0  0  0  0  0  0  0
   10.5708   44.2647  -20.9222 O   0  0  0  0  0  0  0  0  0  0  0  0
   11.3203   44.1571  -22.4800 N   0  0  0  0  0  0  0  0  0  0  0  0
   11.2980   43.8593  -23.4181 H   0  0  0  0  0  0  0  0  0  0  0  0
   12.1150   44.6544  -22.1321 C   0  0  0  0  0  0  0  0  0  0  0  0
   12.2069   45.6348  -22.3063 C   0  0  0  0  0  0  0  0  0  0  0  0
   12.4698   46.2519  -21.5647 O   0  0  0  0  0  0  0  0  0  0  0  0
   12.0358   45.9980  -23.2221 N   0  0  0  0  0  0  0  0  0  0  0  0
   11.7769   45.3905  -23.9522 H   0  0  0  0  0  0  0  0  0  0  0  0
   12.1277   46.9784  -23.3964 C   0  0  0  0  0  0  0  0  0  0  0  0
   11.3117   47.5422  -23.5242 C   0  0  0  0  0  0  0  0  0  0  0  0
   11.0736   48.2381  -22.8466 O   0  0  0  0  0  0  0  0  0  0  0  0
   10.7338   47.4101  -24.3296 N   0  0  0  0  0  0  0  0  0  0  0  0
   10.8866   46.7440  -25.0597 C   0  0  0  0  0  0  0  0  0  0  0  0
   10.1489   46.8432  -25.7276 C   0  0  0  0  0  0  0  0  0  0  0  0
    9.5403   47.5704  -25.4102 C   0  0  0  0  0  0  0  0  0  0  0  0
    9.9018   47.9208  -24.5462 C   0  0  0  0  0  0  0  0  0  0  0  0
    9.5016   48.6532  -23.9955 C   0  0  0  0  0  0  0  0  0  0  0  0
    8.7786   48.4454  -23.3366 O   0  0  0  0  0  0  0  0  0  0  0  0
    9.8243   49.5936  -24.1037 O   0  0  0  0  0  0  0  0  0  0  0  0
    8.4762   47.5644  -23.2352 H   0  0  0  0  0  0  0  0  0  0  0  0
   13.0356   47.3951  -23.4428 C   0  0  0  0  0  0  0  0  0  0  0  0
   13.6269   47.2191  -24.2297 S   0  0  0  0  0  0  0  0  0  0  0  0
   13.1965   46.4129  -25.2369 H   0  0  0  0  0  0  0  0  0  0  0  0
   12.8178   44.1713  -21.6099 C   0  0  0  0  0  0  0  0  0  0  0  0
   13.3816   43.4755  -22.0548 C   0  0  0  0  0  0  0  0  0  0  0  0
   14.1028   43.6447  -22.7266 C   0  0  0  0  0  0  0  0  0  0  0  0
   14.4901   42.7622  -22.9931 N   0  0  0  0  0  0  0  0  0  0  0  0
   14.0083   42.0474  -22.4861 C   0  0  0  0  0  0  0  0  0  0  0  0
   13.3231   42.4884  -21.9062 N   0  0  0  0  0  0  0  0  0  0  0  0
   12.7005   42.0308  -21.2962 H   0  0  0  0  0  0  0  0  0  0  0  0
    9.8798   42.6968  -22.8508 C   0  0  0  0  0  0  0  0  0  0  0  0
    9.7045   41.7628  -22.5398 C   0  0  0  0  0  0  0  0  0  0  0  0
    9.9935   40.9866  -23.1001 C   0  0  0  0  0  0  0  0  0  0  0  0
   10.9652   40.8364  -23.2832 O   0  0  0  0  0  0  0  0  0  0  0  0
    9.3111   40.3606  -23.4774 N   0  0  0  0  0  0  0  0  0  0  0  0
    8.3546   40.5085  -23.2972 H   0  0  0  0  0  0  0  0  0  0  0  0
    9.5957   39.5965  -24.0291 H   0  0  0  0  0  0  0  0  0  0  0  0
    7.2507   45.2611  -21.4782 C   0  0  0  0  0  0  0  0  0  0  0  0
    6.9986   46.2119  -21.6586 C   0  0  0  0  0  0  0  0  0  0  0  0
    6.9875   46.8766  -20.9115 C   0  0  0  0  0  0  0  0  0  0  0  0
    6.2881   47.5908  -20.8880 C   0  0  0  0  0  0  0  0  0  0  0  0
    6.4943   48.5043  -21.2390 N   0  0  0  0  0  0  0  0  0  0  0  0
    7.4181   48.7074  -21.6208 H   0  0  0  0  0  0  0  0  0  0  0  0
    5.7808   49.2328  -21.2151 H   0  0  0  0  0  0  0  0  0  0  0  0
    4.3897   44.2471  -23.8957 C   0  0  0  0  0  0  0  0  0  0  0  0
    5.1115   44.0639  -24.5631 O   0  0  0  0  0  0  0  0  0  0  0  0
    4.4286   43.8270  -22.9891 N   0  0  0  0  0  0  0  0  0  0  0  0
    3.7180   44.0073  -22.3320 H   0  0  0  0  0  0  0  0  0  0  0  0
    3.6289   44.8505  -24.1349 C   0  0  0  0  0  0  0  0  0  0  0  0
    3.8381   46.5426  -23.8302 C   0  0  0  0  0  0  0  0  0  0  0  0
    3.6844   46.3859  -22.8546 O   0  0  0  0  0  0  0  0  0  0  0  0
    3.8103   45.7749  -24.4704 N   0  0  0  0  0  0  0  0  0  0  0  0
    3.9616   45.9291  -25.4309 H   0  0  0  0  0  0  0  0  0  0  0  0
    4.0195   47.4670  -24.1657 C   0  0  0  0  0  0  0  0  0  0  0  0
    5.4186   48.1033  -24.9642 C   0  0  0  0  0  0  0  0  0  0  0  0
    5.7465   48.4732  -24.0950 O   0  0  0  0  0  0  0  0  0  0  0  0
    4.5551   47.6002  -24.9996 N   0  0  0  0  0  0  0  0  0  0  0  0
    4.2322   47.2360  -25.8553 H   0  0  0  0  0  0  0  0  0  0  0  0
    5.9542   48.2364  -25.7981 C   0  0  0  0  0  0  0  0  0  0  0  0
    6.4776   49.0787  -25.9270 C   0  0  0  0  0  0  0  0  0  0  0  0
    5.7656   47.7639  -27.4537 C   0  0  0  0  0  0  0  0  0  0  0  0
    5.5526   48.7096  -27.6993 O   0  0  0  0  0  0  0  0  0  0  0  0
    5.9664   47.5273  -26.5031 N   0  0  0  0  0  0  0  0  0  0  0  0
    6.1761   46.5963  -26.2613 H   0  0  0  0  0  0  0  0  0  0  0  0
    5.7778   47.0548  -28.1588 C   0  0  0  0  0  0  0  0  0  0  0  0
    4.2732   46.2804  -28.5283 C   0  0  0  0  0  0  0  0  0  0  0  0
    4.3446   45.7414  -27.6891 O   0  0  0  0  0  0  0  0  0  0  0  0
    4.9899   46.9371  -28.7632 N   0  0  0  0  0  0  0  0  0  0  0  0
    4.9197   47.4677  -29.5894 H   0  0  0  0  0  0  0  0  0  0  0  0
    3.4853   46.1627  -29.1327 C   0  0  0  0  0  0  0  0  0  0  0  0
    3.8283   45.5628  -30.7209 C   0  0  0  0  0  0  0  0  0  0  0  0
    3.9794   44.6493  -30.3433 O   0  0  0  0  0  0  0  0  0  0  0  0
    3.5813   46.3195  -30.1157 N   0  0  0  0  0  0  0  0  0  0  0  0
    3.4326   47.2189  -30.4874 H   0  0  0  0  0  0  0  0  0  0  0  0
    4.8316   45.8523  -32.1028 N   0  0  0  0  0  0  0  0  0  0  0  0
    3.9243   45.7196  -31.7039 C   0  0  0  0  0  0  0  0  0  0  0  0
    4.9296   46.0123  -33.1054 H   0  0  0  0  0  0  0  0  0  0  0  0
    5.6592   45.8276  -31.5070 H   0  0  0  0  0  0  0  0  0  0  0  0
    3.1129   45.7439  -32.2880 C   0  0  0  0  0  0  0  0  0  0  0  0
    2.4839   44.9666  -32.3025 O   0  0  0  0  0  0  0  0  0  0  0  0
    2.9306   46.5453  -32.8575 C   0  0  0  0  0  0  0  0  0  0  0  0
    2.6608   44.1892  -31.7499 H   0  0  0  0  0  0  0  0  0  0  0  0
    2.6014   45.8882  -28.7542 C   0  0  0  0  0  0  0  0  0  0  0  0
    1.8529   46.5492  -28.7018 C   0  0  0  0  0  0  0  0  0  0  0  0
    0.9058   46.2303  -28.6650 C   0  0  0  0  0  0  0  0  0  0  0  0
    0.6066   45.4826  -29.2577 O   0  0  0  0  0  0  0  0  0  0  0  0
    0.2579   46.6593  -28.0355 N   0  0  0  0  0  0  0  0  0  0  0  0
    0.5525   47.3955  -27.4521 H   0  0  0  0  0  0  0  0  0  0  0  0
   -0.6745   46.3454  -27.9993 H   0  0  0  0  0  0  0  0  0  0  0  0
    6.5779   46.4635  -28.2594 C   0  0  0  0  0  0  0  0  0  0  0  0
    7.2561   46.6563  -28.9685 C   0  0  0  0  0  0  0  0  0  0  0  0
    7.5782   45.9215  -29.5653 C   0  0  0  0  0  0  0  0  0  0  0  0
    7.3750   44.9687  -29.3397 O   0  0  0  0  0  0  0  0  0  0  0  0
    8.1037   46.1394  -30.3879 N   0  0  0  0  0  0  0  0  0  0  0  0
    8.3037   47.0774  -30.6100 H   0  0  0  0  0  0  0  0  0  0  0  0
    8.4208   45.4158  -30.9754 H   0  0  0  0  0  0  0  0  0  0  0  0
    3.6653   48.2582  -23.6672 C   0  0  0  0  0  0  0  0  0  0  0  0
    2.8026   48.6799  -23.9464 O   0  0  0  0  0  0  0  0  0  0  0  0
    2.4591   49.4474  -23.4628 H   0  0  0  0  0  0  0  0  0  0  0  0
    2.6867   44.5293  -24.0387 C   0  0  0  0  0  0  0  0  0  0  0  0
    2.1688   44.2496  -24.8471 C   0  0  0  0  0  0  0  0  0  0  0  0
    1.3354   44.6829  -25.1902 C   0  0  0  0  0  0  0  0  0  0  0  0
    1.0448   44.1886  -26.0095 N   0  0  0  0  0  0  0  0  0  0  0  0
    1.6987   43.4497  -26.1727 C   0  0  0  0  0  0  0  0  0  0  0  0
    2.3933   43.4875  -25.4543 N   0  0  0  0  0  0  0  0  0  0  0  0
    3.1630   42.8808  -25.3612 H   0  0  0  0  0  0  0  0  0  0  0  0
 95 96  1  0  0  0
 95 97  1  0  0  0
 95 98  1  0  0  0
 96 91  1  0  0  0
 96 99  1  0  0  0
 91 92  2  0  0  0
 91 93  1  0  0  0
 93 90  1  0  0  0
 93 94  1  0  0  0
 90103  1  0  0  0
 90 86  1  0  0  0
103104  1  0  0  0
104105  1  0  0  0
105106  2  0  0  0
105107  1  0  0  0
107108  1  0  0  0
107109  1  0  0  0
 86 87  2  0  0  0
 86 88  1  0  0  0
 88 85  1  0  0  0
 88 89  1  0  0  0
 85110  1  0  0  0
 85 81  1  0  0  0
110111  1  0  0  0
111112  1  0  0  0
112113  2  0  0  0
112114  1  0  0  0
114115  1  0  0  0
114116  1  0  0  0
 81 82  2  0  0  0
 81 83  1  0  0  0
 83 79  1  0  0  0
 83 84  1  0  0  0
 79 80  1  0  0  0
 79 75  1  0  0  0
 75 76  2  0  0  0
 75 77  1  0  0  0
 77 74  1  0  0  0
 77 78  1  0  0  0
 74117  1  0  0  0
 74 70  1  0  0  0
117118  1  0  0  0
118119  1  0  0  0
 70 71  2  0  0  0
 70 72  1  0  0  0
 72 69  1  0  0  0
 72 73  1  0  0  0
 69120  1  0  0  0
 69 65  1  0  0  0
120121  1  0  0  0
121125  1  0  0  0
121122  2  0  0  0
122123  1  0  0  0
123124  2  0  0  0
124125  1  0  0  0
125126  1  0  0  0
 65 66  2  0  0  0
 65 67  1  0  0  0
 67  1  1  0  0  0
 67 68  1  0  0  0
  1  2  1  0  0  0
  1 10  1  0  0  0
  2  8  2  0  0  0
  2  3  1  0  0  0
  3  4  2  0  0  0
  4  5  1  0  0  0
  5  6  1  0  0  0
  5  7  2  0  0  0
  6  9  1  0  0  0
  7  8  1  0  0  0
 10 11  2  0  0  0
 10 12  1  0  0  0
 12 14  1  0  0  0
 12 13  1  0  0  0
 14 58  1  0  0  0
 14 15  1  0  0  0
 58 59  1  0  0  0
 59 60  1  0  0  0
 60 61  1  0  0  0
 61 62  1  0  0  0
 62 63  1  0  0  0
 62 64  1  0  0  0
 15 16  2  0  0  0
 15 17  1  0  0  0
 17 19  1  0  0  0
 17 18  1  0  0  0
 19 51  1  0  0  0
 19 20  1  0  0  0
 51 52  1  0  0  0
 52 53  1  0  0  0
 53 54  2  0  0  0
 53 55  1  0  0  0
 55 56  1  0  0  0
 55 57  1  0  0  0
 20 21  2  0  0  0
 20 22  1  0  0  0
 22 24  1  0  0  0
 22 23  1  0  0  0
 24 44  1  0  0  0
 24 25  1  0  0  0
 44 45  1  0  0  0
 45 49  1  0  0  0
 45 46  2  0  0  0
 46 47  1  0  0  0
 47 48  2  0  0  0
 48 49  1  0  0  0
 49 50  1  0  0  0
 25 26  2  0  0  0
 25 27  1  0  0  0
 27 29  1  0  0  0
 27 28  1  0  0  0
 29 41  1  0  0  0
 29 30  1  0  0  0
 41 42  1  0  0  0
 42 43  1  0  0  0
 30 31  2  0  0  0
 30 32  1  0  0  0
 32 36  1  0  0  0
 32 33  1  0  0  0
 33 34  1  0  0  0
 34 35  1  0  0  0
 35 36  1  0  0  0
 36 37  1  0  0  0
 37 38  1  0  0  0
 37 39  2  0  0  0
 38 40  1  0  0  0
 99100  1  0  0  0
 99101  1  0  0  0
100102  1  0  0  0
M  END
> <minimizedAffinity>
-4.94177

$$$$



126129  0  0  0  0  0  0  0  0999 V2000
    3.1086   45.8067  -26.9345 C   0  0  0  0  0  0  0  0  0  0  0  0
    3.5298   45.1804  -26.2786 C   0  0  0  0  0  0  0  0  0  0  0  0
    3.7298   45.4901  -25.3490 C   0  0  0  0  0  0  0  0  0  0  0  0
    4.1511   44.8637  -24.6931 C   0  0  0  0  0  0  0  0  0  0  0  0
    4.3723   43.9277  -24.9667 C   0  0  0  0  0  0  0  0  0  0  0  0
    4.7935   43.3013  -24.3108 O   0  0  0  0  0  0  0  0  0  0  0  0
    4.1723   43.6180  -25.8963 C   0  0  0  0  0  0  0  0  0  0  0  0
    3.7510   44.2443  -26.5522 C   0  0  0  0  0  0  0  0  0  0  0  0
    4.9809   43.5915  -23.4398 H   0  0  0  0  0  0  0  0  0  0  0  0
    2.1284   45.7476  -27.1237 C   0  0  0  0  0  0  0  0  0  0  0  0
    1.5023   46.4230  -26.7341 O   0  0  0  0  0  0  0  0  0  0  0  0
    1.7744   45.0131  -27.7026 N   0  0  0  0  0  0  0  0  0  0  0  0
    2.3908   44.3482  -28.0862 H   0  0  0  0  0  0  0  0  0  0  0  0
    0.7942   44.9539  -27.8919 C   0  0  0  0  0  0  0  0  0  0  0  0
    0.4252   45.3315  -28.7412 C   0  0  0  0  0  0  0  0  0  0  0  0
   -0.5548   45.2718  -28.9307 O   0  0  0  0  0  0  0  0  0  0  0  0
    1.0363   45.7688  -29.4010 N   0  0  0  0  0  0  0  0  0  0  0  0
    2.0012   45.8276  -29.2144 H   0  0  0  0  0  0  0  0  0  0  0  0
    0.6674   46.1464  -30.2503 C   0  0  0  0  0  0  0  0  0  0  0  0
    0.9167   45.7385  -31.1286 C   0  0  0  0  0  0  0  0  0  0  0  0
    1.8606   45.4553  -31.2984 O   0  0  0  0  0  0  0  0  0  0  0  0
    0.2220   45.6137  -31.8371 N   0  0  0  0  0  0  0  0  0  0  0  0
   -0.7072   45.8924  -31.6699 H   0  0  0  0  0  0  0  0  0  0  0  0
    0.4713   45.2058  -32.7154 C   0  0  0  0  0  0  0  0  0  0  0  0
    0.3254   44.2291  -32.8725 C   0  0  0  0  0  0  0  0  0  0  0  0
    0.9294   43.7264  -33.4909 O   0  0  0  0  0  0  0  0  0  0  0  0
   -0.4246   43.7550  -32.4111 N   0  0  0  0  0  0  0  0  0  0  0  0
   -1.0192   44.2500  -31.8023 H   0  0  0  0  0  0  0  0  0  0  0  0
   -0.5706   42.7783  -32.5682 C   0  0  0  0  0  0  0  0  0  0  0  0
   -0.2028   42.1078  -31.9239 C   0  0  0  0  0  0  0  0  0  0  0  0
    0.5908   41.5544  -32.1768 O   0  0  0  0  0  0  0  0  0  0  0  0
   -0.6285   41.9908  -31.0266 N   0  0  0  0  0  0  0  0  0  0  0  0
   -1.4212   42.4937  -30.6821 C   0  0  0  0  0  0  0  0  0  0  0  0
   -1.6189   42.1640  -29.7589 C   0  0  0  0  0  0  0  0  0  0  0  0
   -0.9484   41.4574  -29.5329 C   0  0  0  0  0  0  0  0  0  0  0  0
   -0.3363   41.3503  -30.3164 C   0  0  0  0  0  0  0  0  0  0  0  0
    0.4329   40.7145  -30.3787 C   0  0  0  0  0  0  0  0  0  0  0  0
    0.2701   39.7528  -30.5995 O   0  0  0  0  0  0  0  0  0  0  0  0
    1.3651   41.0402  -30.2204 O   0  0  0  0  0  0  0  0  0  0  0  0
   -0.6033   39.4476  -30.7478 H   0  0  0  0  0  0  0  0  0  0  0  0
   -1.0844   42.4720  -33.3696 C   0  0  0  0  0  0  0  0  0  0  0  0
   -2.0269   42.7773  -33.5060 S   0  0  0  0  0  0  0  0  0  0  0  0
   -2.6099   43.6090  -32.6016 H   0  0  0  0  0  0  0  0  0  0  0  0
    0.8666   45.7746  -33.4367 C   0  0  0  0  0  0  0  0  0  0  0  0
    0.3421   46.5367  -33.8163 C   0  0  0  0  0  0  0  0  0  0  0  0
    0.6722   47.4722  -33.9428 C   0  0  0  0  0  0  0  0  0  0  0  0
   -0.0704   48.0108  -34.3407 N   0  0  0  0  0  0  0  0  0  0  0  0
   -0.8595   47.4082  -34.4602 C   0  0  0  0  0  0  0  0  0  0  0  0
   -0.6045   46.4972  -34.1361 N   0  0  0  0  0  0  0  0  0  0  0  0
   -1.1838   45.7012  -34.1325 H   0  0  0  0  0  0  0  0  0  0  0  0
    0.0492   46.9318  -30.2212 C   0  0  0  0  0  0  0  0  0  0  0  0
    0.4189   47.8558  -30.1242 C   0  0  0  0  0  0  0  0  0  0  0  0
   -0.0579   48.6312  -30.5382 C   0  0  0  0  0  0  0  0  0  0  0  0
   -1.0088   48.5343  -30.8323 O   0  0  0  0  0  0  0  0  0  0  0  0
    0.4161   49.5035  -30.6582 N   0  0  0  0  0  0  0  0  0  0  0  0
    1.3523   49.5989  -30.3686 H   0  0  0  0  0  0  0  0  0  0  0  0
   -0.0533   50.2669  -31.0658 H   0  0  0  0  0  0  0  0  0  0  0  0
    0.1830   44.5172  -27.2318 C   0  0  0  0  0  0  0  0  0  0  0  0
    0.2818   43.5433  -27.0273 C   0  0  0  0  0  0  0  0  0  0  0  0
   -0.1212   43.1639  -26.1944 C   0  0  0  0  0  0  0  0  0  0  0  0
    0.2384   42.3153  -25.8066 C   0  0  0  0  0  0  0  0  0  0  0  0
    1.0077   42.3437  -25.1683 N   0  0  0  0  0  0  0  0  0  0  0  0
    1.4255   43.2385  -24.9128 H   0  0  0  0  0  0  0  0  0  0  0  0
    1.3745   41.4781  -24.7728 H   0  0  0  0  0  0  0  0  0  0  0  0
    4.0858   46.2793  -28.2842 C   0  0  0  0  0  0  0  0  0  0  0  0
    3.9453   45.3809  -28.7005 O   0  0  0  0  0  0  0  0  0  0  0  0
    3.6674   46.4922  -27.4012 N   0  0  0  0  0  0  0  0  0  0  0  0
    3.8058   47.3765  -26.9914 H   0  0  0  0  0  0  0  0  0  0  0  0
    4.6447   46.9647  -28.7509 C   0  0  0  0  0  0  0  0  0  0  0  0
    6.3572   46.8527  -28.5166 C   0  0  0  0  0  0  0  0  0  0  0  0
    6.2558   47.2285  -27.5955 O   0  0  0  0  0  0  0  0  0  0  0  0
    5.5517   46.7208  -29.0943 N   0  0  0  0  0  0  0  0  0  0  0  0
    5.6514   46.3509  -30.0012 H   0  0  0  0  0  0  0  0  0  0  0  0
    7.2641   46.6088  -28.8601 C   0  0  0  0  0  0  0  0  0  0  0  0
    8.4230   47.8607  -29.1596 C   0  0  0  0  0  0  0  0  0  0  0  0
    7.9795   48.0623  -30.0329 O   0  0  0  0  0  0  0  0  0  0  0  0
    8.0653   47.1340  -28.5732 N   0  0  0  0  0  0  0  0  0  0  0  0
    8.5019   46.9355  -27.7135 H   0  0  0  0  0  0  0  0  0  0  0  0
    9.2242   48.3859  -28.8727 C   0  0  0  0  0  0  0  0  0  0  0  0
    9.6065   49.0849  -29.4770 C   0  0  0  0  0  0  0  0  0  0  0  0
    9.5681   48.8925  -27.2526 C   0  0  0  0  0  0  0  0  0  0  0  0
    9.0742   49.7468  -27.4148 O   0  0  0  0  0  0  0  0  0  0  0  0
    9.6431   48.2121  -27.9815 N   0  0  0  0  0  0  0  0  0  0  0  0
   10.1293   47.3710  -27.8217 H   0  0  0  0  0  0  0  0  0  0  0  0
    9.9870   48.7187  -26.3612 C   0  0  0  0  0  0  0  0  0  0  0  0
    9.2286   47.6404  -25.2378 C   0  0  0  0  0  0  0  0  0  0  0  0
    9.6241   46.8592  -25.7207 O   0  0  0  0  0  0  0  0  0  0  0  0
    9.4100   48.5702  -25.5581 N   0  0  0  0  0  0  0  0  0  0  0  0
    9.0207   49.3394  -25.0827 H   0  0  0  0  0  0  0  0  0  0  0  0
    8.6516   47.4919  -24.4346 C   0  0  0  0  0  0  0  0  0  0  0  0
    9.4563   47.0957  -22.9529 C   0  0  0  0  0  0  0  0  0  0  0  0
    9.7314   48.0512  -22.8468 O   0  0  0  0  0  0  0  0  0  0  0  0
    8.9164   46.8161  -23.7468 N   0  0  0  0  0  0  0  0  0  0  0  0
    8.6455   45.8753  -23.8514 H   0  0  0  0  0  0  0  0  0  0  0  0
    9.1221   46.2392  -21.4850 N   0  0  0  0  0  0  0  0  0  0  0  0
    9.7211   46.4197  -22.2651 C   0  0  0  0  0  0  0  0  0  0  0  0
    9.3921   45.5498  -20.7835 H   0  0  0  0  0  0  0  0  0  0  0  0
    8.2411   46.7446  -21.3908 H   0  0  0  0  0  0  0  0  0  0  0  0
   10.5848   45.9242  -22.3575 C   0  0  0  0  0  0  0  0  0  0  0  0
   11.3292   46.3140  -22.8996 O   0  0  0  0  0  0  0  0  0  0  0  0
   10.7040   45.0391  -21.9078 C   0  0  0  0  0  0  0  0  0  0  0  0
   11.2135   47.1726  -23.3359 H   0  0  0  0  0  0  0  0  0  0  0  0
    7.8099   48.0193  -24.3192 C   0  0  0  0  0  0  0  0  0  0  0  0
    6.9217   47.5762  -24.4403 C   0  0  0  0  0  0  0  0  0  0  0  0
    6.0825   48.0641  -24.1996 C   0  0  0  0  0  0  0  0  0  0  0  0
    5.7908   48.1161  -23.2446 O   0  0  0  0  0  0  0  0  0  0  0  0
    5.5352   48.5000  -24.9141 N   0  0  0  0  0  0  0  0  0  0  0  0
    5.8225   48.4488  -25.8543 H   0  0  0  0  0  0  0  0  0  0  0  0
    4.7091   48.9802  -24.6772 H   0  0  0  0  0  0  0  0  0  0  0  0
   10.9828   48.6934  -26.2732 C   0  0  0  0  0  0  0  0  0  0  0  0
   11.4527   49.3764  -25.7141 C   0  0  0  0  0  0  0  0  0  0  0  0
   12.3653   49.1848  -25.3529 C   0  0  0  0  0  0  0  0  0  0  0  0
   13.1666   49.2776  -25.9439 O   0  0  0  0  0  0  0  0  0  0  0  0
   12.4767   48.9003  -24.4006 N   0  0  0  0  0  0  0  0  0  0  0  0
   11.6878   48.8089  -23.8188 H   0  0  0  0  0  0  0  0  0  0  0  0
   13.3752   48.7117  -24.0451 H   0  0  0  0  0  0  0  0  0  0  0  0
    7.3699   45.8398  -29.4904 C   0  0  0  0  0  0  0  0  0  0  0  0
    7.7337   44.9688  -29.1601 O   0  0  0  0  0  0  0  0  0  0  0  0
    7.8363   44.2228  -29.7716 H   0  0  0  0  0  0  0  0  0  0  0  0
    4.2966   47.8941  -28.8741 C   0  0  0  0  0  0  0  0  0  0  0  0
    4.0769   48.2283  -29.7906 C   0  0  0  0  0  0  0  0  0  0  0  0
    3.9469   49.1847  -30.0520 C   0  0  0  0  0  0  0  0  0  0  0  0
    3.7381   49.2123  -31.0297 N   0  0  0  0  0  0  0  0  0  0  0  0
    3.7391   48.2728  -31.3724 C   0  0  0  0  0  0  0  0  0  0  0  0
    3.9485   47.6648  -30.6066 N   0  0  0  0  0  0  0  0  0  0  0  0
    4.0162   46.6835  -30.6487 H   0  0  0  0  0  0  0  0  0  0  0  0
 95 96  1  0  0  0
 95 97  1  0  0  0
 95 98  1  0  0  0
 96 91  1  0  0  0
 96 99  1  0  0  0
 91 92  2  0  0  0
 91 93  1  0  0  0
 93 90  1  0  0  0
 93 94  1  0  0  0
 90103  1  0  0  0
 90 86  1  0  0  0
103104  1  0  0  0
104105  1  0  0  0
105106  2  0  0  0
105107  1  0  0  0
107108  1  0  0  0
107109  1  0  0  0
 86 87  2  0  0  0
 86 88  1  0  0  0
 88 85  1  0  0  0
 88 89  1  0  0  0
 85110  1  0  0  0
 85 81  1  0  0  0
110111  1  0  0  0
111112  1  0  0  0
112113  2  0  0  0
112114  1  0  0  0
114115  1  0  0  0
114116  1  0  0  0
 81 82  2  0  0  0
 81 83  1  0  0  0
 83 79  1  0  0  0
 83 84  1  0  0  0
 79 80  1  0  0  0
 79 75  1  0  0  0
 75 76  2  0  0  0
 75 77  1  0  0  0
 77 74  1  0  0  0
 77 78  1  0  0  0
 74117  1  0  0  0
 74 70  1  0  0  0
117118  1  0  0  0
118119  1  0  0  0
 70 71  2  0  0  0
 70 72  1  0  0  0
 72 69  1  0  0  0
 72 73  1  0  0  0
 69120  1  0  0  0
 69 65  1  0  0  0
120121  1  0  0  0
121125  1  0  0  0
121122  2  0  0  0
122123  1  0  0  0
123124  2  0  0  0
124125  1  0  0  0
125126  1  0  0  0
 65 66  2  0  0  0
 65 67  1  0  0  0
 67  1  1  0  0  0
 67 68  1  0  0  0
  1  2  1  0  0  0
  1 10  1  0  0  0
  2  8  2  0  0  0
  2  3  1  0  0  0
  3  4  2  0  0  0
  4  5  1  0  0  0
  5  6  1  0  0  0
  5  7  2  0  0  0
  6  9  1  0  0  0
  7  8  1  0  0  0
 10 11  2  0  0  0
 10 12  1  0  0  0
 12 14  1  0  0  0
 12 13  1  0  0  0
 14 58  1  0  0  0
 14 15  1  0  0  0
 58 59  1  0  0  0
 59 60  1  0  0  0
 60 61  1  0  0  0
 61 62  1  0  0  0
 62 63  1  0  0  0
 62 64  1  0  0  0
 15 16  2  0  0  0
 15 17  1  0  0  0
 17 19  1  0  0  0
 17 18  1  0  0  0
 19 51  1  0  0  0
 19 20  1  0  0  0
 51 52  1  0  0  0
 52 53  1  0  0  0
 53 54  2  0  0  0
 53 55  1  0  0  0
 55 56  1  0  0  0
 55 57  1  0  0  0
 20 21  2  0  0  0
 20 22  1  0  0  0
 22 24  1  0  0  0
 22 23  1  0  0  0
 24 44  1  0  0  0
 24 25  1  0  0  0
 44 45  1  0  0  0
 45 49  1  0  0  0
 45 46  2  0  0  0
 46 47  1  0  0  0
 47 48  2  0  0  0
 48 49  1  0  0  0
 49 50  1  0  0  0
 25 26  2  0  0  0
 25 27  1  0  0  0
 27 29  1  0  0  0
 27 28  1  0  0  0
 29 41  1  0  0  0
 29 30  1  0  0  0
 41 42  1  0  0  0
 42 43  1  0  0  0
 30 31  2  0  0  0
 30 32  1  0  0  0
 32 36  1  0  0  0
 32 33  1  0  0  0
 33 34  1  0  0  0
 34 35  1  0  0  0
 35 36  1  0  0  0
 36 37  1  0  0  0
 37 38  1  0  0  0
 37 39  2  0  0  0
 38 40  1  0  0  0
 99100  1  0  0  0
 99101  1  0  0  0
100102  1  0  0  0
M  END
> <minimizedAffinity>
-4.92738

$$$$



126129  0  0  0  0  0  0  0  0999 V2000
    5.5853   47.1514  -28.9070 C   0  0  0  0  0  0  0  0  0  0  0  0
    5.5032   46.7045  -29.7979 C   0  0  0  0  0  0  0  0  0  0  0  0
    5.8475   45.7742  -29.9242 C   0  0  0  0  0  0  0  0  0  0  0  0
    5.7653   45.3274  -30.8151 C   0  0  0  0  0  0  0  0  0  0  0  0
    5.3390   45.8109  -31.5796 C   0  0  0  0  0  0  0  0  0  0  0  0
    5.2568   45.3640  -32.4704 O   0  0  0  0  0  0  0  0  0  0  0  0
    4.9947   46.7412  -31.4532 C   0  0  0  0  0  0  0  0  0  0  0  0
    5.0768   47.1880  -30.5624 C   0  0  0  0  0  0  0  0  0  0  0  0
    5.5794   44.4923  -32.5888 H   0  0  0  0  0  0  0  0  0  0  0  0
    4.8028   47.1735  -28.2848 C   0  0  0  0  0  0  0  0  0  0  0  0
    4.8730   46.7573  -27.3782 O   0  0  0  0  0  0  0  0  0  0  0  0
    3.9502   47.6118  -28.5691 N   0  0  0  0  0  0  0  0  0  0  0  0
    3.8811   48.0216  -29.4615 H   0  0  0  0  0  0  0  0  0  0  0  0
    3.1676   47.6340  -27.9468 C   0  0  0  0  0  0  0  0  0  0  0  0
    2.4534   46.9376  -28.0167 C   0  0  0  0  0  0  0  0  0  0  0  0
    1.9268   46.6785  -27.2070 O   0  0  0  0  0  0  0  0  0  0  0  0
    2.2657   46.5004  -28.8962 N   0  0  0  0  0  0  0  0  0  0  0  0
    2.7841   46.7555  -29.6933 H   0  0  0  0  0  0  0  0  0  0  0  0
    1.5515   45.8040  -28.9661 C   0  0  0  0  0  0  0  0  0  0  0  0
    0.6310   46.0598  -29.2614 C   0  0  0  0  0  0  0  0  0  0  0  0
   -0.1598   45.5376  -28.9422 O   0  0  0  0  0  0  0  0  0  0  0  0
    0.5012   46.8380  -29.8761 N   0  0  0  0  0  0  0  0  0  0  0  0
    1.2797   47.3521  -30.1904 H   0  0  0  0  0  0  0  0  0  0  0  0
   -0.4193   47.0938  -30.1714 C   0  0  0  0  0  0  0  0  0  0  0  0
   -0.7589   46.7961  -31.0636 C   0  0  0  0  0  0  0  0  0  0  0  0
   -1.7428   46.7140  -31.2221 O   0  0  0  0  0  0  0  0  0  0  0  0
   -0.1145   46.5805  -31.7974 N   0  0  0  0  0  0  0  0  0  0  0  0
    0.8541   46.6614  -31.6413 H   0  0  0  0  0  0  0  0  0  0  0  0
   -0.4541   46.2828  -32.6896 C   0  0  0  0  0  0  0  0  0  0  0  0
   -0.4499   46.9166  -33.4631 C   0  0  0  0  0  0  0  0  0  0  0  0
   -1.3130   47.2082  -33.8753 O   0  0  0  0  0  0  0  0  0  0  0  0
    0.4176   47.2588  -33.8244 N   0  0  0  0  0  0  0  0  0  0  0  0
    1.3286   47.0276  -33.4829 C   0  0  0  0  0  0  0  0  0  0  0  0
    2.0003   47.5181  -34.0381 C   0  0  0  0  0  0  0  0  0  0  0  0
    1.5044   48.0524  -34.7226 C   0  0  0  0  0  0  0  0  0  0  0  0
    0.5262   47.8921  -34.5905 C   0  0  0  0  0  0  0  0  0  0  0  0
   -0.2134   48.2945  -35.1299 C   0  0  0  0  0  0  0  0  0  0  0  0
   -0.5510   47.8239  -35.9452 O   0  0  0  0  0  0  0  0  0  0  0  0
   -0.6156   49.1676  -34.8541 O   0  0  0  0  0  0  0  0  0  0  0  0
   -0.1742   47.0058  -36.2036 H   0  0  0  0  0  0  0  0  0  0  0  0
   -0.7980   45.3513  -32.8083 C   0  0  0  0  0  0  0  0  0  0  0  0
   -0.1619   44.5798  -32.8092 S   0  0  0  0  0  0  0  0  0  0  0  0
    1.1710   44.7973  -32.6489 H   0  0  0  0  0  0  0  0  0  0  0  0
   -1.0001   47.6473  -29.5746 C   0  0  0  0  0  0  0  0  0  0  0  0
   -0.7842   48.6115  -29.4208 C   0  0  0  0  0  0  0  0  0  0  0  0
   -0.5426   49.0272  -28.5439 C   0  0  0  0  0  0  0  0  0  0  0  0
   -0.3809   50.0018  -28.6981 N   0  0  0  0  0  0  0  0  0  0  0  0
   -0.5226   50.1887  -29.6703 C   0  0  0  0  0  0  0  0  0  0  0  0
   -0.7719   49.3293  -30.1169 N   0  0  0  0  0  0  0  0  0  0  0  0
   -0.9702   49.2109  -31.0739 H   0  0  0  0  0  0  0  0  0  0  0  0
    1.7577   44.8518  -28.7406 C   0  0  0  0  0  0  0  0  0  0  0  0
    2.4127   44.3375  -29.2941 C   0  0  0  0  0  0  0  0  0  0  0  0
    2.7115   43.4296  -29.0002 C   0  0  0  0  0  0  0  0  0  0  0  0
    2.2143   42.6169  -29.3042 O   0  0  0  0  0  0  0  0  0  0  0  0
    3.5074   43.3343  -28.4024 N   0  0  0  0  0  0  0  0  0  0  0  0
    3.9968   44.1345  -28.1032 H   0  0  0  0  0  0  0  0  0  0  0  0
    3.8016   42.4405  -28.1131 H   0  0  0  0  0  0  0  0  0  0  0  0
    3.0994   48.3525  -27.2546 C   0  0  0  0  0  0  0  0  0  0  0  0
    2.9819   49.3057  -27.5334 C   0  0  0  0  0  0  0  0  0  0  0  0
    3.2187   50.0441  -26.9020 C   0  0  0  0  0  0  0  0  0  0  0  0
    3.4055   50.9616  -27.2531 C   0  0  0  0  0  0  0  0  0  0  0  0
    4.3193   51.1928  -27.5870 N   0  0  0  0  0  0  0  0  0  0  0  0
    5.0609   50.4928  -27.5694 H   0  0  0  0  0  0  0  0  0  0  0  0
    4.5097   52.1287  -27.9451 H   0  0  0  0  0  0  0  0  0  0  0  0
    6.6058   48.5479  -28.8155 C   0  0  0  0  0  0  0  0  0  0  0  0
    5.8971   49.0950  -29.2610 O   0  0  0  0  0  0  0  0  0  0  0  0
    6.4499   47.5761  -28.6385 N   0  0  0  0  0  0  0  0  0  0  0  0
    7.1475   47.0375  -28.1999 H   0  0  0  0  0  0  0  0  0  0  0  0
    7.4704   48.9726  -28.5469 C   0  0  0  0  0  0  0  0  0  0  0  0
    7.6554   49.4322  -26.8872 C   0  0  0  0  0  0  0  0  0  0  0  0
    7.0800   50.2346  -27.0452 O   0  0  0  0  0  0  0  0  0  0  0  0
    7.8506   48.8012  -27.6381 N   0  0  0  0  0  0  0  0  0  0  0  0
    8.4171   48.0111  -27.4826 H   0  0  0  0  0  0  0  0  0  0  0  0
    8.0357   49.2607  -25.9784 C   0  0  0  0  0  0  0  0  0  0  0  0
    7.3826   48.2396  -24.7411 C   0  0  0  0  0  0  0  0  0  0  0  0
    7.9510   47.4834  -25.0653 O   0  0  0  0  0  0  0  0  0  0  0  0
    7.4250   49.1283  -25.1977 N   0  0  0  0  0  0  0  0  0  0  0  0
    6.8654   49.8728  -24.8787 H   0  0  0  0  0  0  0  0  0  0  0  0
    6.7719   48.1072  -23.9604 C   0  0  0  0  0  0  0  0  0  0  0  0
    6.9246   48.6172  -23.1140 C   0  0  0  0  0  0  0  0  0  0  0  0
    5.2960   47.4613  -23.3245 C   0  0  0  0  0  0  0  0  0  0  0  0
    5.3470   48.1004  -22.5570 O   0  0  0  0  0  0  0  0  0  0  0  0
    6.0084   47.4648  -24.0262 N   0  0  0  0  0  0  0  0  0  0  0  0
    5.9581   46.8356  -24.7818 H   0  0  0  0  0  0  0  0  0  0  0  0
    4.5324   46.8189  -23.3903 C   0  0  0  0  0  0  0  0  0  0  0  0
    4.7534   45.1587  -22.9488 C   0  0  0  0  0  0  0  0  0  0  0  0
    4.6394   45.3998  -21.9851 O   0  0  0  0  0  0  0  0  0  0  0  0
    4.6999   45.8682  -23.6514 N   0  0  0  0  0  0  0  0  0  0  0  0
    4.8122   45.6309  -24.6003 H   0  0  0  0  0  0  0  0  0  0  0  0
    4.9210   44.2080  -23.2100 C   0  0  0  0  0  0  0  0  0  0  0  0
    3.6218   43.3892  -24.0110 C   0  0  0  0  0  0  0  0  0  0  0  0
    3.1371   43.3065  -23.1404 O   0  0  0  0  0  0  0  0  0  0  0  0
    4.5138   43.8400  -24.0459 N   0  0  0  0  0  0  0  0  0  0  0  0
    4.9911   43.9214  -24.9031 H   0  0  0  0  0  0  0  0  0  0  0  0
    3.6427   42.2463  -25.3124 N   0  0  0  0  0  0  0  0  0  0  0  0
    3.2147   43.0211  -24.8470 C   0  0  0  0  0  0  0  0  0  0  0  0
    3.2275   41.8709  -26.1650 H   0  0  0  0  0  0  0  0  0  0  0  0
    4.4945   41.8316  -24.9345 H   0  0  0  0  0  0  0  0  0  0  0  0
    2.3796   43.4277  -25.2175 C   0  0  0  0  0  0  0  0  0  0  0  0
    2.3723   44.3878  -25.4969 O   0  0  0  0  0  0  0  0  0  0  0  0
    1.5518   42.8741  -25.3085 C   0  0  0  0  0  0  0  0  0  0  0  0
    3.1754   44.9247  -25.4086 H   0  0  0  0  0  0  0  0  0  0  0  0
    5.4957   43.6255  -22.6353 C   0  0  0  0  0  0  0  0  0  0  0  0
    6.4129   43.3704  -22.9411 C   0  0  0  0  0  0  0  0  0  0  0  0
    6.8740   42.5813  -22.5352 C   0  0  0  0  0  0  0  0  0  0  0  0
    6.7155   41.6654  -22.9039 O   0  0  0  0  0  0  0  0  0  0  0  0
    7.4935   42.7081  -21.7606 N   0  0  0  0  0  0  0  0  0  0  0  0
    7.6495   43.6099  -21.3976 H   0  0  0  0  0  0  0  0  0  0  0  0
    7.9474   41.9313  -21.3610 H   0  0  0  0  0  0  0  0  0  0  0  0
    3.6014   47.1271  -23.1949 C   0  0  0  0  0  0  0  0  0  0  0  0
    2.9829   47.3574  -23.9462 C   0  0  0  0  0  0  0  0  0  0  0  0
    2.0103   47.5041  -23.7661 C   0  0  0  0  0  0  0  0  0  0  0  0
    1.7195   48.2526  -23.1702 O   0  0  0  0  0  0  0  0  0  0  0  0
    1.3284   46.9022  -24.1819 N   0  0  0  0  0  0  0  0  0  0  0  0
    1.6147   46.1653  -24.7685 H   0  0  0  0  0  0  0  0  0  0  0  0
    0.3708   47.0467  -24.0045 H   0  0  0  0  0  0  0  0  0  0  0  0
    9.0266   49.2217  -25.8503 C   0  0  0  0  0  0  0  0  0  0  0  0
    9.5613   50.0664  -25.8256 O   0  0  0  0  0  0  0  0  0  0  0  0
   10.5226   50.0286  -25.7013 H   0  0  0  0  0  0  0  0  0  0  0  0
    7.9547   49.5688  -29.1873 C   0  0  0  0  0  0  0  0  0  0  0  0
    8.6473   49.1874  -29.7994 C   0  0  0  0  0  0  0  0  0  0  0  0
    9.5797   48.9309  -29.5448 C   0  0  0  0  0  0  0  0  0  0  0  0
   10.0379   48.5804  -30.3617 N   0  0  0  0  0  0  0  0  0  0  0  0
    9.3885   48.6203  -31.1212 C   0  0  0  0  0  0  0  0  0  0  0  0
    8.5292   48.9954  -30.7736 N   0  0  0  0  0  0  0  0  0  0  0  0
    7.7105   49.1488  -31.2985 H   0  0  0  0  0  0  0  0  0  0  0  0
 95 96  1  0  0  0
 95 97  1  0  0  0
 95 98  1  0  0  0
 96 91  1  0  0  0
 96 99  1  0  0  0
 91 92  2  0  0  0
 91 93  1  0  0  0
 93 90  1  0  0  0
 93 94  1  0  0  0
 90103  1  0  0  0
 90 86  1  0  0  0
103104  1  0  0  0
104105  1  0  0  0
105106  2  0  0  0
105107  1  0  0  0
107108  1  0  0  0
107109  1  0  0  0
 86 87  2  0  0  0
 86 88  1  0  0  0
 88 85  1  0  0  0
 88 89  1  0  0  0
 85110  1  0  0  0
 85 81  1  0  0  0
110111  1  0  0  0
111112  1  0  0  0
112113  2  0  0  0
112114  1  0  0  0
114115  1  0  0  0
114116  1  0  0  0
 81 82  2  0  0  0
 81 83  1  0  0  0
 83 79  1  0  0  0
 83 84  1  0  0  0
 79 80  1  0  0  0
 79 75  1  0  0  0
 75 76  2  0  0  0
 75 77  1  0  0  0
 77 74  1  0  0  0
 77 78  1  0  0  0
 74117  1  0  0  0
 74 70  1  0  0  0
117118  1  0  0  0
118119  1  0  0  0
 70 71  2  0  0  0
 70 72  1  0  0  0
 72 69  1  0  0  0
 72 73  1  0  0  0
 69120  1  0  0  0
 69 65  1  0  0  0
120121  1  0  0  0
121125  1  0  0  0
121122  2  0  0  0
122123  1  0  0  0
123124  2  0  0  0
124125  1  0  0  0
125126  1  0  0  0
 65 66  2  0  0  0
 65 67  1  0  0  0
 67  1  1  0  0  0
 67 68  1  0  0  0
  1  2  1  0  0  0
  1 10  1  0  0  0
  2  8  2  0  0  0
  2  3  1  0  0  0
  3  4  2  0  0  0
  4  5  1  0  0  0
  5  6  1  0  0  0
  5  7  2  0  0  0
  6  9  1  0  0  0
  7  8  1  0  0  0
 10 11  2  0  0  0
 10 12  1  0  0  0
 12 14  1  0  0  0
 12 13  1  0  0  0
 14 58  1  0  0  0
 14 15  1  0  0  0
 58 59  1  0  0  0
 59 60  1  0  0  0
 60 61  1  0  0  0
 61 62  1  0  0  0
 62 63  1  0  0  0
 62 64  1  0  0  0
 15 16  2  0  0  0
 15 17  1  0  0  0
 17 19  1  0  0  0
 17 18  1  0  0  0
 19 51  1  0  0  0
 19 20  1  0  0  0
 51 52  1  0  0  0
 52 53  1  0  0  0
 53 54  2  0  0  0
 53 55  1  0  0  0
 55 56  1  0  0  0
 55 57  1  0  0  0
 20 21  2  0  0  0
 20 22  1  0  0  0
 22 24  1  0  0  0
 22 23  1  0  0  0
 24 44  1  0  0  0
 24 25  1  0  0  0
 44 45  1  0  0  0
 45 49  1  0  0  0
 45 46  2  0  0  0
 46 47  1  0  0  0
 47 48  2  0  0  0
 48 49  1  0  0  0
 49 50  1  0  0  0
 25 26  2  0  0  0
 25 27  1  0  0  0
 27 29  1  0  0  0
 27 28  1  0  0  0
 29 41  1  0  0  0
 29 30  1  0  0  0
 41 42  1  0  0  0
 42 43  1  0  0  0
 30 31  2  0  0  0
 30 32  1  0  0  0
 32 36  1  0  0  0
 32 33  1  0  0  0
 33 34  1  0  0  0
 34 35  1  0  0  0
 35 36  1  0  0  0
 36 37  1  0  0  0
 37 38  1  0  0  0
 37 39  2  0  0  0
 38 40  1  0  0  0
 99100  1  0  0  0
 99101  1  0  0  0
100102  1  0  0  0
M  END
> <minimizedAffinity>
-4.90204

$$$$



126129  0  0  0  0  0  0  0  0999 V2000
    5.8374   49.2365  -27.4228 C   0  0  0  0  0  0  0  0  0  0  0  0
    4.9991   49.7801  -27.3826 C   0  0  0  0  0  0  0  0  0  0  0  0
    4.1080   49.3262  -27.3892 C   0  0  0  0  0  0  0  0  0  0  0  0
    3.2696   49.8698  -27.3490 C   0  0  0  0  0  0  0  0  0  0  0  0
    3.3223   50.8673  -27.3022 C   0  0  0  0  0  0  0  0  0  0  0  0
    2.4839   51.4109  -27.2621 O   0  0  0  0  0  0  0  0  0  0  0  0
    4.2133   51.3213  -27.2957 C   0  0  0  0  0  0  0  0  0  0  0  0
    5.0517   50.7777  -27.3359 C   0  0  0  0  0  0  0  0  0  0  0  0
    1.6490   50.9856  -27.2682 H   0  0  0  0  0  0  0  0  0  0  0  0
    6.2629   48.9105  -26.5786 C   0  0  0  0  0  0  0  0  0  0  0  0
    6.5520   49.5645  -25.8795 O   0  0  0  0  0  0  0  0  0  0  0  0
    6.3992   47.9306  -26.4335 N   0  0  0  0  0  0  0  0  0  0  0  0
    6.1145   47.2867  -27.1218 H   0  0  0  0  0  0  0  0  0  0  0  0
    6.8246   47.6045  -25.5892 C   0  0  0  0  0  0  0  0  0  0  0  0
    7.8028   47.3977  -25.5698 C   0  0  0  0  0  0  0  0  0  0  0  0
    8.2184   46.8758  -26.3147 O   0  0  0  0  0  0  0  0  0  0  0  0
    8.3654   47.7127  -24.8054 N   0  0  0  0  0  0  0  0  0  0  0  0
    7.9562   48.2265  -24.0720 H   0  0  0  0  0  0  0  0  0  0  0  0
    9.3435   47.5059  -24.7859 C   0  0  0  0  0  0  0  0  0  0  0  0
    9.7121   46.8977  -24.0830 C   0  0  0  0  0  0  0  0  0  0  0  0
    9.3001   46.8789  -23.1720 O   0  0  0  0  0  0  0  0  0  0  0  0
   10.4926   46.3081  -24.2910 N   0  0  0  0  0  0  0  0  0  0  0  0
   10.8982   46.3266  -25.1878 H   0  0  0  0  0  0  0  0  0  0  0  0
   10.8612   45.6999  -23.5880 C   0  0  0  0  0  0  0  0  0  0  0  0
   10.6099   44.7320  -23.5825 C   0  0  0  0  0  0  0  0  0  0  0  0
   10.6488   44.2006  -24.4287 O   0  0  0  0  0  0  0  0  0  0  0  0
   10.3198   44.2955  -22.7309 N   0  0  0  0  0  0  0  0  0  0  0  0
   10.2815   44.8187  -21.8978 H   0  0  0  0  0  0  0  0  0  0  0  0
   10.0685   43.3276  -22.7254 C   0  0  0  0  0  0  0  0  0  0  0  0
    9.1058   43.0612  -22.6798 C   0  0  0  0  0  0  0  0  0  0  0  0
    8.7291   42.4296  -23.3574 O   0  0  0  0  0  0  0  0  0  0  0  0
    8.5197   43.4264  -21.9565 N   0  0  0  0  0  0  0  0  0  0  0  0
    8.8009   44.0605  -21.2362 C   0  0  0  0  0  0  0  0  0  0  0  0
    8.0044   44.2476  -20.6611 C   0  0  0  0  0  0  0  0  0  0  0  0
    7.2311   43.7291  -21.0259 C   0  0  0  0  0  0  0  0  0  0  0  0
    7.5495   43.2216  -21.8265 C   0  0  0  0  0  0  0  0  0  0  0  0
    6.9952   42.6157  -22.3970 C   0  0  0  0  0  0  0  0  0  0  0  0
    6.4721   42.9900  -23.1627 O   0  0  0  0  0  0  0  0  0  0  0  0
    6.9639   41.6354  -22.2019 O   0  0  0  0  0  0  0  0  0  0  0  0
    6.5014   43.9085  -23.3456 H   0  0  0  0  0  0  0  0  0  0  0  0
   10.7801   42.6260  -22.7656 C   0  0  0  0  0  0  0  0  0  0  0  0
   11.2790   42.3718  -21.9371 S   0  0  0  0  0  0  0  0  0  0  0  0
   10.9899   42.9802  -20.7556 H   0  0  0  0  0  0  0  0  0  0  0  0
   11.4809   46.0595  -22.8905 C   0  0  0  0  0  0  0  0  0  0  0  0
   12.3674   46.4382  -23.1565 C   0  0  0  0  0  0  0  0  0  0  0  0
   12.7417   47.3187  -22.8656 C   0  0  0  0  0  0  0  0  0  0  0  0
   13.6408   47.4275  -23.2894 N   0  0  0  0  0  0  0  0  0  0  0  0
   13.8223   46.6143  -23.8424 C   0  0  0  0  0  0  0  0  0  0  0  0
   13.0352   46.0028  -23.7602 N   0  0  0  0  0  0  0  0  0  0  0  0
   12.9355   45.1262  -24.1970 H   0  0  0  0  0  0  0  0  0  0  0  0
    9.9532   47.9073  -25.4695 C   0  0  0  0  0  0  0  0  0  0  0  0
   10.3391   48.8180  -25.3219 C   0  0  0  0  0  0  0  0  0  0  0  0
   11.0035   49.1904  -25.9699 C   0  0  0  0  0  0  0  0  0  0  0  0
   10.7165   49.4324  -26.8968 O   0  0  0  0  0  0  0  0  0  0  0  0
   11.9549   49.3209  -25.6909 N   0  0  0  0  0  0  0  0  0  0  0  0
   12.2374   49.0827  -24.7784 H   0  0  0  0  0  0  0  0  0  0  0  0
   12.6090   49.6876  -26.3288 H   0  0  0  0  0  0  0  0  0  0  0  0
    6.2719   47.4853  -24.7645 C   0  0  0  0  0  0  0  0  0  0  0  0
    5.7802   46.6279  -24.6117 C   0  0  0  0  0  0  0  0  0  0  0  0
    5.0603   46.5809  -23.9192 C   0  0  0  0  0  0  0  0  0  0  0  0
    5.2049   46.0524  -23.0827 C   0  0  0  0  0  0  0  0  0  0  0  0
    4.5118   45.3992  -22.7778 N   0  0  0  0  0  0  0  0  0  0  0  0
    3.6573   45.2721  -23.3202 H   0  0  0  0  0  0  0  0  0  0  0  0
    4.6593   44.8602  -21.9246 H   0  0  0  0  0  0  0  0  0  0  0  0
    7.0968   49.4710  -28.5885 C   0  0  0  0  0  0  0  0  0  0  0  0
    7.5304   50.1407  -27.9855 O   0  0  0  0  0  0  0  0  0  0  0  0
    6.2504   49.0190  -28.3072 N   0  0  0  0  0  0  0  0  0  0  0  0
    5.8236   48.3597  -28.9008 H   0  0  0  0  0  0  0  0  0  0  0  0
    7.5097   49.2534  -29.4729 C   0  0  0  0  0  0  0  0  0  0  0  0
    7.9771   47.6067  -29.7372 C   0  0  0  0  0  0  0  0  0  0  0  0
    8.7777   47.7401  -29.1531 O   0  0  0  0  0  0  0  0  0  0  0  0
    7.3431   48.3634  -29.8971 N   0  0  0  0  0  0  0  0  0  0  0  0
    6.5548   48.2320  -30.4722 H   0  0  0  0  0  0  0  0  0  0  0  0
    7.8104   46.7166  -30.1615 C   0  0  0  0  0  0  0  0  0  0  0  0
    6.2769   45.9951  -29.8041 C   0  0  0  0  0  0  0  0  0  0  0  0
    6.5931   45.7807  -28.8800 O   0  0  0  0  0  0  0  0  0  0  0  0
    6.8855   46.4631  -30.4448 N   0  0  0  0  0  0  0  0  0  0  0  0
    6.5742   46.6742  -31.3546 H   0  0  0  0  0  0  0  0  0  0  0  0
    5.3520   45.7416  -30.0875 C   0  0  0  0  0  0  0  0  0  0  0  0
    5.0649   44.7842  -30.0584 C   0  0  0  0  0  0  0  0  0  0  0  0
    4.3742   46.4304  -31.3402 C   0  0  0  0  0  0  0  0  0  0  0  0
    4.6721   45.7113  -31.9681 O   0  0  0  0  0  0  0  0  0  0  0  0
    4.7141   46.4455  -30.3999 N   0  0  0  0  0  0  0  0  0  0  0  0
    4.4209   47.1535  -29.7818 H   0  0  0  0  0  0  0  0  0  0  0  0
    3.7363   47.1343  -31.6527 C   0  0  0  0  0  0  0  0  0  0  0  0
    2.1204   46.6152  -31.9981 C   0  0  0  0  0  0  0  0  0  0  0  0
    1.9301   46.5558  -31.0181 O   0  0  0  0  0  0  0  0  0  0  0  0
    3.0235   46.9045  -32.3153 N   0  0  0  0  0  0  0  0  0  0  0  0
    3.2109   46.9631  -33.2800 H   0  0  0  0  0  0  0  0  0  0  0  0
    1.4076   46.3854  -32.6607 C   0  0  0  0  0  0  0  0  0  0  0  0
    0.5840   47.6858  -33.4549 C   0  0  0  0  0  0  0  0  0  0  0  0
    0.0328   47.8378  -32.6345 O   0  0  0  0  0  0  0  0  0  0  0  0
    1.2714   46.9596  -33.4679 N   0  0  0  0  0  0  0  0  0  0  0  0
    1.8141   46.8099  -34.2756 H   0  0  0  0  0  0  0  0  0  0  0  0
   -0.0096   47.8873  -35.0695 N   0  0  0  0  0  0  0  0  0  0  0  0
    0.4479   48.2600  -34.2622 C   0  0  0  0  0  0  0  0  0  0  0  0
   -0.1485   48.4729  -35.8930 H   0  0  0  0  0  0  0  0  0  0  0  0
   -0.3374   46.9213  -35.0694 H   0  0  0  0  0  0  0  0  0  0  0  0
    0.7693   49.2070  -34.2623 C   0  0  0  0  0  0  0  0  0  0  0  0
    1.7500   49.4021  -34.2748 O   0  0  0  0  0  0  0  0  0  0  0  0
    0.1100   49.9587  -34.2498 C   0  0  0  0  0  0  0  0  0  0  0  0
    2.3895   48.6729  -34.2870 H   0  0  0  0  0  0  0  0  0  0  0  0
    0.8309   45.5814  -32.5160 C   0  0  0  0  0  0  0  0  0  0  0  0
    1.0056   44.7417  -33.0302 C   0  0  0  0  0  0  0  0  0  0  0  0
    0.5130   43.9025  -32.7996 C   0  0  0  0  0  0  0  0  0  0  0  0
    0.8660   43.2949  -32.0881 O   0  0  0  0  0  0  0  0  0  0  0  0
   -0.3326   43.6709  -33.2806 N   0  0  0  0  0  0  0  0  0  0  0  0
   -0.6800   44.2691  -33.9811 H   0  0  0  0  0  0  0  0  0  0  0  0
   -0.8175   42.8448  -33.0537 H   0  0  0  0  0  0  0  0  0  0  0  0
    3.8113   48.0680  -31.3027 C   0  0  0  0  0  0  0  0  0  0  0  0
    4.2392   48.7786  -31.8612 C   0  0  0  0  0  0  0  0  0  0  0  0
    4.1161   49.7423  -31.6247 C   0  0  0  0  0  0  0  0  0  0  0  0
    4.2613   50.0488  -30.6839 O   0  0  0  0  0  0  0  0  0  0  0  0
    3.8477   50.3997  -32.3289 N   0  0  0  0  0  0  0  0  0  0  0  0
    3.7047   50.0980  -33.2550 H   0  0  0  0  0  0  0  0  0  0  0  0
    3.7265   51.3486  -32.0959 H   0  0  0  0  0  0  0  0  0  0  0  0
    8.5686   46.0801  -30.3023 C   0  0  0  0  0  0  0  0  0  0  0  0
    8.7435   45.7043  -31.2123 O   0  0  0  0  0  0  0  0  0  0  0  0
    9.4791   45.0868  -31.3489 H   0  0  0  0  0  0  0  0  0  0  0  0
    8.0894   49.9260  -29.9331 C   0  0  0  0  0  0  0  0  0  0  0  0
    7.7191   50.4768  -30.6812 C   0  0  0  0  0  0  0  0  0  0  0  0
    7.6898   50.2143  -31.6456 C   0  0  0  0  0  0  0  0  0  0  0  0
    7.2657   50.9620  -32.1567 N   0  0  0  0  0  0  0  0  0  0  0  0
    7.0329   51.6866  -31.5079 C   0  0  0  0  0  0  0  0  0  0  0  0
    7.3132   51.3866  -30.5961 N   0  0  0  0  0  0  0  0  0  0  0  0
    7.2079   51.8975  -29.7611 H   0  0  0  0  0  0  0  0  0  0  0  0
 95 96  1  0  0  0
 95 97  1  0  0  0
 95 98  1  0  0  0
 96 91  1  0  0  0
 96 99  1  0  0  0
 91 92  2  0  0  0
 91 93  1  0  0  0
 93 90  1  0  0  0
 93 94  1  0  0  0
 90103  1  0  0  0
 90 86  1  0  0  0
103104  1  0  0  0
104105  1  0  0  0
105106  2  0  0  0
105107  1  0  0  0
107108  1  0  0  0
107109  1  0  0  0
 86 87  2  0  0  0
 86 88  1  0  0  0
 88 85  1  0  0  0
 88 89  1  0  0  0
 85110  1  0  0  0
 85 81  1  0  0  0
110111  1  0  0  0
111112  1  0  0  0
112113  2  0  0  0
112114  1  0  0  0
114115  1  0  0  0
114116  1  0  0  0
 81 82  2  0  0  0
 81 83  1  0  0  0
 83 79  1  0  0  0
 83 84  1  0  0  0
 79 80  1  0  0  0
 79 75  1  0  0  0
 75 76  2  0  0  0
 75 77  1  0  0  0
 77 74  1  0  0  0
 77 78  1  0  0  0
 74117  1  0  0  0
 74 70  1  0  0  0
117118  1  0  0  0
118119  1  0  0  0
 70 71  2  0  0  0
 70 72  1  0  0  0
 72 69  1  0  0  0
 72 73  1  0  0  0
 69120  1  0  0  0
 69 65  1  0  0  0
120121  1  0  0  0
121125  1  0  0  0
121122  2  0  0  0
122123  1  0  0  0
123124  2  0  0  0
124125  1  0  0  0
125126  1  0  0  0
 65 66  2  0  0  0
 65 67  1  0  0  0
 67  1  1  0  0  0
 67 68  1  0  0  0
  1  2  1  0  0  0
  1 10  1  0  0  0
  2  8  2  0  0  0
  2  3  1  0  0  0
  3  4  2  0  0  0
  4  5  1  0  0  0
  5  6  1  0  0  0
  5  7  2  0  0  0
  6  9  1  0  0  0
  7  8  1  0  0  0
 10 11  2  0  0  0
 10 12  1  0  0  0
 12 14  1  0  0  0
 12 13  1  0  0  0
 14 58  1  0  0  0
 14 15  1  0  0  0
 58 59  1  0  0  0
 59 60  1  0  0  0
 60 61  1  0  0  0
 61 62  1  0  0  0
 62 63  1  0  0  0
 62 64  1  0  0  0
 15 16  2  0  0  0
 15 17  1  0  0  0
 17 19  1  0  0  0
 17 18  1  0  0  0
 19 51  1  0  0  0
 19 20  1  0  0  0
 51 52  1  0  0  0
 52 53  1  0  0  0
 53 54  2  0  0  0
 53 55  1  0  0  0
 55 56  1  0  0  0
 55 57  1  0  0  0
 20 21  2  0  0  0
 20 22  1  0  0  0
 22 24  1  0  0  0
 22 23  1  0  0  0
 24 44  1  0  0  0
 24 25  1  0  0  0
 44 45  1  0  0  0
 45 49  1  0  0  0
 45 46  2  0  0  0
 46 47  1  0  0  0
 47 48  2  0  0  0
 48 49  1  0  0  0
 49 50  1  0  0  0
 25 26  2  0  0  0
 25 27  1  0  0  0
 27 29  1  0  0  0
 27 28  1  0  0  0
 29 41  1  0  0  0
 29 30  1  0  0  0
 41 42  1  0  0  0
 42 43  1  0  0  0
 30 31  2  0  0  0
 30 32  1  0  0  0
 32 36  1  0  0  0
 32 33  1  0  0  0
 33 34  1  0  0  0
 34 35  1  0  0  0
 35 36  1  0  0  0
 36 37  1  0  0  0
 37 38  1  0  0  0
 37 39  2  0  0  0
 38 40  1  0  0  0
 99100  1  0  0  0
 99101  1  0  0  0
100102  1  0  0  0
M  END
> <minimizedAffinity>
-4.84209

$$$$
