gleevec.pdb
 OpenBabel10112313323D

 29 32  0  0  0  0  0  0  0  0999 V2000
   11.5650   61.4970   12.5110 C   0  0  0  0  0  0  0  0  0  0  0  0
   10.5330   60.9290   11.7370 C   0  0  0  0  0  0  0  0  0  0  0  0
   10.6150   59.6390   11.3340 N   0  0  0  0  0  0  0  0  0  0  0  0
   11.6740   58.8450   11.6480 C   0  0  0  0  0  0  0  0  0  0  0  0
   12.7470   59.3530   12.4240 C   0  0  0  0  0  0  0  0  0  0  0  0
   12.6820   60.6950   12.8550 C   0  0  0  0  0  0  0  0  0  0  0  0
   13.8570   58.4850   12.7390 C   0  0  0  0  0  0  0  0  0  0  0  0
   13.7950   57.1810   12.3360 N   0  0  0  0  0  4  0  0  0  0  0  0
   14.7570   56.2910   12.5640 C   0  0  0  0  0  0  0  0  0  0  0  0
   15.8770   56.7040   13.2410 N   0  0  0  0  0  0  0  0  0  0  0  0
   16.0220   57.9800   13.6790 C   0  0  0  0  0  0  0  0  0  0  0  0
   15.0010   58.9140   13.4350 C   0  0  0  0  0  0  0  0  0  0  0  0
   14.6570   55.0130   12.1520 N   0  0  0  0  0  0  0  0  0  0  0  0
   15.6960   54.0830   12.2510 C   0  0  0  0  0  0  0  0  0  0  0  0
   15.6490   53.1620   13.3500 C   0  0  0  0  0  0  0  0  0  0  0  0
   16.6800   52.1840   13.5080 C   0  0  0  0  0  0  0  0  0  0  0  0
   17.6990   52.1450   12.5780 C   0  0  0  0  0  0  0  0  0  0  0  0
   17.7480   53.0460   11.5040 C   0  0  0  0  0  0  0  0  0  0  0  0
   16.7390   54.0180   11.3140 C   0  0  0  0  0  0  0  0  0  0  0  0
   16.9120   54.9120   10.1050 C   0  0  0  0  0  0  0  0  0  0  0  0
   16.6610   51.2280   14.5380 N   0  0  0  0  0  0  0  0  0  0  0  0
   15.7950   51.0650   15.5350 C   0  0  0  0  0  0  0  0  0  0  0  0
   15.9660   49.9190   16.4300 C   0  0  0  0  0  0  0  0  0  0  0  0
   14.8210   49.2730   16.9840 C   0  0  0  0  0  0  0  0  0  0  0  0
   14.9740   48.1550   17.8360 C   0  0  0  0  0  0  0  0  0  0  0  0
   16.2820   47.6880   18.1210 C   0  0  0  0  0  0  0  0  0  0  0  0
   17.3630   48.3250   17.5740 N   0  0  0  0  0  0  0  0  0  0  0  0
   17.2360   49.4110   16.7490 C   0  0  0  0  0  0  0  0  0  0  0  0
   14.8230   51.7860   15.7350 O   0  0  0  0  0  0  0  0  0  0  0  0
  1  2  2  0  0  0  0
  1  6  1  0  0  0  0
  2  3  1  0  0  0  0
  3  4  2  0  0  0  0
  4  5  1  0  0  0  0
  5  6  2  0  0  0  0
  5  7  1  0  0  0  0
  7  8  2  0  0  0  0
  7 12  1  0  0  0  0
  8  9  2  0  0  0  0
  9 10  2  0  0  0  0
  9 13  1  0  0  0  0
 10 11  1  0  0  0  0
 11 12  2  0  0  0  0
 13 14  1  0  0  0  0
 14 15  2  0  0  0  0
 14 19  1  0  0  0  0
 15 16  1  0  0  0  0
 16 17  2  0  0  0  0
 16 21  1  0  0  0  0
 17 18  1  0  0  0  0
 18 19  2  0  0  0  0
 19 20  1  0  0  0  0
 21 22  1  0  0  0  0
 22 23  1  0  0  0  0
 22 29  2  0  0  0  0
 23 24  2  0  0  0  0
 23 28  1  0  0  0  0
 24 25  1  0  0  0  0
 25 26  2  0  0  0  0
 26 27  1  0  0  0  0
 27 28  2  0  0  0  0
M  END
$$$$
