


126129  0  0  0  0  0  0  0  0999 V2000
  -14.0201   -5.4424   17.0701 C   0  0  0  0  0  0  0  0  0  0  0  0
  -14.0407   -6.2634   15.8016 C   0  0  0  0  0  0  0  0  0  0  0  0
  -12.9474   -7.0740   15.4465 C   0  0  0  0  0  0  0  0  0  0  0  0
  -12.9987   -7.8659   14.2969 C   0  0  0  0  0  0  0  0  0  0  0  0
  -14.1330   -7.8448   13.4756 C   0  0  0  0  0  0  0  0  0  0  0  0
  -14.1758   -8.6410   12.3318 O   0  0  0  0  0  0  0  0  0  0  0  0
  -15.2192   -7.0284   13.8131 C   0  0  0  0  0  0  0  0  0  0  0  0
  -15.1752   -6.2503   14.9746 C   0  0  0  0  0  0  0  0  0  0  0  0
  -14.9667   -8.6089   11.6991 H   0  0  0  0  0  0  0  0  0  0  0  0
  -13.0619   -4.2872   16.9419 C   0  0  0  0  0  0  0  0  0  0  0  0
  -13.0969   -3.5365   15.9316 O   0  0  0  0  0  0  0  0  0  0  0  0
  -12.0732   -4.0655   17.9568 N   0  0  0  0  0  0  0  0  0  0  0  0
  -12.3878   -4.1644   18.9496 H   0  0  0  0  0  0  0  0  0  0  0  0
  -10.6201   -4.0923   17.7219 C   0  0  0  0  0  0  0  0  0  0  0  0
  -10.3390   -3.6249   16.3134 C   0  0  0  0  0  0  0  0  0  0  0  0
  -10.0078   -4.4528   15.4170 O   0  0  0  0  0  0  0  0  0  0  0  0
  -10.4378   -2.2287   15.9998 N   0  0  0  0  0  0  0  0  0  0  0  0
  -10.9135   -1.6035   16.6900 H   0  0  0  0  0  0  0  0  0  0  0  0
   -9.5877   -1.6050   14.9793 C   0  0  0  0  0  0  0  0  0  0  0  0
  -10.3785   -1.4006   13.7095 C   0  0  0  0  0  0  0  0  0  0  0  0
   -9.9626   -0.5841   12.8454 O   0  0  0  0  0  0  0  0  0  0  0  0
  -11.5624   -2.1793   13.4561 N   0  0  0  0  0  0  0  0  0  0  0  0
  -11.8247   -2.8984   14.1715 H   0  0  0  0  0  0  0  0  0  0  0  0
  -12.2143   -2.1977   12.1359 C   0  0  0  0  0  0  0  0  0  0  0  0
  -13.6925   -1.8775   12.2310 C   0  0  0  0  0  0  0  0  0  0  0  0
  -14.4542   -2.6571   12.8657 O   0  0  0  0  0  0  0  0  0  0  0  0
  -14.2850   -0.7862   11.5009 N   0  0  0  0  0  0  0  0  0  0  0  0
  -15.2240   -0.9752   11.0764 H   0  0  0  0  0  0  0  0  0  0  0  0
  -13.8773    0.6289   11.5738 C   0  0  0  0  0  0  0  0  0  0  0  0
  -13.0388    1.0288   10.3807 C   0  0  0  0  0  0  0  0  0  0  0  0
  -12.9747    0.2757    9.3776 O   0  0  0  0  0  0  0  0  0  0  0  0
  -12.2056    2.1955   10.4167 N   0  0  0  0  0  0  0  0  0  0  0  0
  -12.6398    3.4888    9.9179 C   0  0  0  0  0  0  0  0  0  0  0  0
  -11.3678    4.3002    9.7201 C   0  0  0  0  0  0  0  0  0  0  0  0
  -10.2977    3.5937   10.5496 C   0  0  0  0  0  0  0  0  0  0  0  0
  -10.7759    2.1480   10.6947 C   0  0  0  0  0  0  0  0  0  0  0  0
  -10.0665    1.2414    9.7266 C   0  0  0  0  0  0  0  0  0  0  0  0
   -9.5325    0.0416   10.1743 O   0  0  0  0  0  0  0  0  0  0  0  0
   -9.9290    1.5829    8.5212 O   0  0  0  0  0  0  0  0  0  0  0  0
   -9.0382   -0.5759    9.5419 H   0  0  0  0  0  0  0  0  0  0  0  0
  -15.0957    1.5495   11.7902 C   0  0  0  0  0  0  0  0  0  0  0  0
  -16.1428    1.6625   10.2998 S   0  0  0  0  0  0  0  0  0  0  0  0
  -16.3994    0.2862   10.2144 H   0  0  0  0  0  0  0  0  0  0  0  0
  -11.9887   -3.5684   11.4618 C   0  0  0  0  0  0  0  0  0  0  0  0
  -12.8270   -3.7501   10.2226 C   0  0  0  0  0  0  0  0  0  0  0  0
  -12.5586   -3.2460    8.9705 C   0  0  0  0  0  0  0  0  0  0  0  0
  -13.5560   -3.5887    8.1325 N   0  0  0  0  0  0  0  0  0  0  0  0
  -14.4165   -4.2869    8.9040 C   0  0  0  0  0  0  0  0  0  0  0  0
  -14.0019   -4.4029   10.1787 N   0  0  0  0  0  0  0  0  0  0  0  0
  -14.5089   -4.8589   10.9695 H   0  0  0  0  0  0  0  0  0  0  0  0
   -9.0548   -0.2494   15.4900 C   0  0  0  0  0  0  0  0  0  0  0  0
  -10.1832    0.6879   15.9530 C   0  0  0  0  0  0  0  0  0  0  0  0
  -10.0948    2.0247   15.2702 C   0  0  0  0  0  0  0  0  0  0  0  0
  -10.7847    2.2501   14.2402 O   0  0  0  0  0  0  0  0  0  0  0  0
   -9.2255    3.0400   15.7759 N   0  0  0  0  0  0  0  0  0  0  0  0
   -9.1979    3.9826   15.3268 H   0  0  0  0  0  0  0  0  0  0  0  0
   -8.5983    2.8576   16.5896 H   0  0  0  0  0  0  0  0  0  0  0  0
   -9.9722   -5.4655   18.0330 C   0  0  0  0  0  0  0  0  0  0  0  0
   -9.1268   -5.4405   19.3181 C   0  0  0  0  0  0  0  0  0  0  0  0
   -8.5369   -6.8165   19.6763 C   0  0  0  0  0  0  0  0  0  0  0  0
   -9.3177   -7.5990   20.7530 C   0  0  0  0  0  0  0  0  0  0  0  0
  -10.0874   -6.7224   21.6390 N   0  0  0  0  0  0  0  0  0  0  0  0
  -10.8922   -6.3203   21.1018 H   0  0  0  0  0  0  0  0  0  0  0  0
   -9.4836   -5.9337   21.9496 H   0  0  0  0  0  0  0  0  0  0  0  0
  -16.0688   -5.5175   18.5209 C   0  0  0  0  0  0  0  0  0  0  0  0
  -16.1301   -6.7659   18.6796 O   0  0  0  0  0  0  0  0  0  0  0  0
  -15.3700   -4.9734   17.3983 N   0  0  0  0  0  0  0  0  0  0  0  0
  -15.7571   -4.1228   16.9268 H   0  0  0  0  0  0  0  0  0  0  0  0
  -16.5364   -4.5969   19.6099 C   0  0  0  0  0  0  0  0  0  0  0  0
  -14.6557   -2.9427   20.0793 C   0  0  0  0  0  0  0  0  0  0  0  0
  -13.3980   -2.9218   20.2175 O   0  0  0  0  0  0  0  0  0  0  0  0
  -15.3633   -4.1598   20.3714 N   0  0  0  0  0  0  0  0  0  0  0  0
  -14.8368   -4.8822   20.9085 H   0  0  0  0  0  0  0  0  0  0  0  0
  -15.3996   -1.6759   19.7126 C   0  0  0  0  0  0  0  0  0  0  0  0
  -15.2801   -1.0368   17.2639 C   0  0  0  0  0  0  0  0  0  0  0  0
  -16.0093   -2.0143   16.9388 O   0  0  0  0  0  0  0  0  0  0  0  0
  -14.7642   -0.9510   18.6025 N   0  0  0  0  0  0  0  0  0  0  0  0
  -13.9507   -0.3208   18.7711 H   0  0  0  0  0  0  0  0  0  0  0  0
  -14.9606    0.0548   16.2701 C   0  0  0  0  0  0  0  0  0  0  0  0
  -13.6045   -0.2266   15.6243 C   0  0  0  0  0  0  0  0  0  0  0  0
  -15.4110    2.5683   16.1976 C   0  0  0  0  0  0  0  0  0  0  0  0
  -15.6803    2.5172   14.9668 O   0  0  0  0  0  0  0  0  0  0  0  0
  -14.9602    1.3912   16.8901 N   0  0  0  0  0  0  0  0  0  0  0  0
  -14.6680    1.5153   17.8826 H   0  0  0  0  0  0  0  0  0  0  0  0
  -15.5641    3.8748   16.9368 C   0  0  0  0  0  0  0  0  0  0  0  0
  -13.2071    4.6067   16.3496 C   0  0  0  0  0  0  0  0  0  0  0  0
  -12.6544    4.4937   15.2200 O   0  0  0  0  0  0  0  0  0  0  0  0
  -14.6159    4.8593   16.4055 N   0  0  0  0  0  0  0  0  0  0  0  0
  -14.9811    5.5298   15.6992 H   0  0  0  0  0  0  0  0  0  0  0  0
  -12.3245    4.6288   17.5866 C   0  0  0  0  0  0  0  0  0  0  0  0
  -10.9641    6.7086   17.2116 C   0  0  0  0  0  0  0  0  0  0  0  0
  -11.4558    7.4426   18.1128 O   0  0  0  0  0  0  0  0  0  0  0  0
  -11.0379    5.2852   17.3439 N   0  0  0  0  0  0  0  0  0  0  0  0
  -10.1536    4.7347   17.3065 H   0  0  0  0  0  0  0  0  0  0  0  0
   -9.6271    6.3187   15.2016 N   0  0  0  0  0  0  0  0  0  0  0  0
  -10.3853    7.3259   15.9560 C   0  0  0  0  0  0  0  0  0  0  0  0
   -9.1333    6.8005   14.4140 H   0  0  0  0  0  0  0  0  0  0  0  0
   -8.8737    5.9394   15.8183 H   0  0  0  0  0  0  0  0  0  0  0  0
  -11.4795    7.9795   15.0830 C   0  0  0  0  0  0  0  0  0  0  0  0
  -12.7311    7.4471   15.4505 O   0  0  0  0  0  0  0  0  0  0  0  0
  -11.5155    9.5075   15.2280 C   0  0  0  0  0  0  0  0  0  0  0  0
  -13.3659    7.6788   14.7255 H   0  0  0  0  0  0  0  0  0  0  0  0
  -12.1211    3.2156   18.1598 C   0  0  0  0  0  0  0  0  0  0  0  0
  -12.0693    3.1653   19.6973 C   0  0  0  0  0  0  0  0  0  0  0  0
  -11.0669    4.1368   20.2676 C   0  0  0  0  0  0  0  0  0  0  0  0
  -11.4062    5.3003   20.6077 O   0  0  0  0  0  0  0  0  0  0  0  0
   -9.7112    3.7290   20.4414 N   0  0  0  0  0  0  0  0  0  0  0  0
   -9.0129    4.3845   20.8518 H   0  0  0  0  0  0  0  0  0  0  0  0
   -9.4132    2.7537   20.2056 H   0  0  0  0  0  0  0  0  0  0  0  0
  -15.4626    3.7760   18.4886 C   0  0  0  0  0  0  0  0  0  0  0  0
  -15.3871    5.0922   19.2904 C   0  0  0  0  0  0  0  0  0  0  0  0
  -15.1845    4.9658   20.7830 C   0  0  0  0  0  0  0  0  0  0  0  0
  -15.7242    3.9993   21.3777 O   0  0  0  0  0  0  0  0  0  0  0  0
  -14.4463    5.9192   21.5547 N   0  0  0  0  0  0  0  0  0  0  0  0
  -14.1274    6.8312   21.1679 H   0  0  0  0  0  0  0  0  0  0  0  0
  -14.3119    5.7622   22.5816 H   0  0  0  0  0  0  0  0  0  0  0  0
  -15.5108   -0.7727   20.9585 C   0  0  0  0  0  0  0  0  0  0  0  0
  -14.9794   -1.4132   22.0914 O   0  0  0  0  0  0  0  0  0  0  0  0
  -14.0053   -1.2065   22.1013 H   0  0  0  0  0  0  0  0  0  0  0  0
  -17.5688   -5.2731   20.5308 C   0  0  0  0  0  0  0  0  0  0  0  0
  -18.6532   -4.3043   20.9090 C   0  0  0  0  0  0  0  0  0  0  0  0
  -18.8942   -3.0794   20.3144 C   0  0  0  0  0  0  0  0  0  0  0  0
  -19.9058   -2.4667   20.9636 N   0  0  0  0  0  0  0  0  0  0  0  0
  -20.2557   -3.3383   21.9380 C   0  0  0  0  0  0  0  0  0  0  0  0
  -19.5169   -4.4670   21.9223 N   0  0  0  0  0  0  0  0  0  0  0  0
  -19.5850   -5.2693   22.5849 H   0  0  0  0  0  0  0  0  0  0  0  0
 95 96  1  0  0  0
 96 91  1  0  0  0
 91 92  2  0  0  0
 91 93  1  0  0  0
 93 90  1  0  0  0
 90103  1  0  0  0
103104  1  0  0  0
104105  1  0  0  0
105106  2  0  0  0
105107  1  0  0  0
 90 86  1  0  0  0
 86 87  2  0  0  0
 86 88  1  0  0  0
 88 85  1  0  0  0
 85110  1  0  0  0
110111  1  0  0  0
111112  1  0  0  0
112113  2  0  0  0
112114  1  0  0  0
 85 81  1  0  0  0
 81 82  2  0  0  0
 81 83  1  0  0  0
 83 79  1  0  0  0
 79 80  1  0  0  0
 79 75  1  0  0  0
 75 76  2  0  0  0
 75 77  1  0  0  0
 77 74  1  0  0  0
 74117  1  0  0  0
117118  1  0  0  0
 74 70  1  0  0  0
 70 71  2  0  0  0
 70 72  1  0  0  0
 72 69  1  0  0  0
 69120  1  0  0  0
120121  1  0  0  0
121122  2  0  0  0
122123  1  0  0  0
123124  2  0  0  0
124125  1  0  0  0
 69 65  1  0  0  0
 65 66  2  0  0  0
 65 67  1  0  0  0
 67  1  1  0  0  0
  1  2  1  0  0  0
  2  3  2  0  0  0
  3  4  1  0  0  0
  4  5  2  0  0  0
  5  6  1  0  0  0
  5  7  1  0  0  0
  7  8  2  0  0  0
  1 10  1  0  0  0
 10 11  2  0  0  0
 10 12  1  0  0  0
 12 14  1  0  0  0
 14 58  1  0  0  0
 58 59  1  0  0  0
 59 60  1  0  0  0
 60 61  1  0  0  0
 61 62  1  0  0  0
 14 15  1  0  0  0
 15 16  2  0  0  0
 15 17  1  0  0  0
 17 19  1  0  0  0
 19 51  1  0  0  0
 51 52  1  0  0  0
 52 53  1  0  0  0
 53 54  2  0  0  0
 53 55  1  0  0  0
 19 20  1  0  0  0
 20 21  2  0  0  0
 20 22  1  0  0  0
 22 24  1  0  0  0
 24 44  1  0  0  0
 44 45  1  0  0  0
 45 46  2  0  0  0
 46 47  1  0  0  0
 47 48  2  0  0  0
 48 49  1  0  0  0
 24 25  1  0  0  0
 25 26  2  0  0  0
 25 27  1  0  0  0
 27 29  1  0  0  0
 29 41  1  0  0  0
 41 42  1  0  0  0
 29 30  1  0  0  0
 30 31  2  0  0  0
 30 32  1  0  0  0
 32 33  1  0  0  0
 33 34  1  0  0  0
 34 35  1  0  0  0
 35 36  1  0  0  0
 36 37  1  0  0  0
 37 38  1  0  0  0
 37 39  2  0  0  0
 96 99  1  0  0  0
 99100  1  0  0  0
 99101  1  0  0  0
125121  1  0  0  0
  8  2  1  0  0  0
 49 45  1  0  0  0
 36 32  1  0  0  0
 95 97  1  0  0  0
 95 98  1  0  0  0
 93 94  1  0  0  0
107108  1  0  0  0
107109  1  0  0  0
 88 89  1  0  0  0
114115  1  0  0  0
114116  1  0  0  0
 83 84  1  0  0  0
 77 78  1  0  0  0
118119  1  0  0  0
 72 73  1  0  0  0
125126  1  0  0  0
 67 68  1  0  0  0
  6  9  1  0  0  0
 12 13  1  0  0  0
 62 63  1  0  0  0
 62 64  1  0  0  0
 17 18  1  0  0  0
 55 56  1  0  0  0
 55 57  1  0  0  0
 22 23  1  0  0  0
 49 50  1  0  0  0
 27 28  1  0  0  0
 42 43  1  0  0  0
 38 40  1  0  0  0
100102  1  0  0  0
M  END
> <minimizedAffinity>
-6.34523

$$$$



126129  0  0  0  0  0  0  0  0999 V2000
    8.7371  -21.4122    7.8354 C   0  0  0  0  0  0  0  0  0  0  0  0
    9.6680  -20.2438    7.6078 C   0  0  0  0  0  0  0  0  0  0  0  0
    9.3883  -18.9785    8.1548 C   0  0  0  0  0  0  0  0  0  0  0  0
   10.2815  -17.9192    7.9784 C   0  0  0  0  0  0  0  0  0  0  0  0
   11.4558  -18.1023    7.2373 C   0  0  0  0  0  0  0  0  0  0  0  0
   12.3425  -17.0394    7.0692 O   0  0  0  0  0  0  0  0  0  0  0  0
   11.7339  -19.3542    6.6756 C   0  0  0  0  0  0  0  0  0  0  0  0
   10.8487  -20.4199    6.8688 C   0  0  0  0  0  0  0  0  0  0  0  0
   13.1755  -17.1357    6.5003 H   0  0  0  0  0  0  0  0  0  0  0  0
    9.4129  -22.7099    7.4771 C   0  0  0  0  0  0  0  0  0  0  0  0
   10.3108  -23.1892    8.2184 O   0  0  0  0  0  0  0  0  0  0  0  0
    9.0624  -23.3837    6.2606 N   0  0  0  0  0  0  0  0  0  0  0  0
    8.0442  -23.4306    6.0254 H   0  0  0  0  0  0  0  0  0  0  0  0
   10.0040  -23.6630    5.1639 C   0  0  0  0  0  0  0  0  0  0  0  0
    9.5149  -22.9818    3.9077 C   0  0  0  0  0  0  0  0  0  0  0  0
    9.6857  -23.5217    2.7772 O   0  0  0  0  0  0  0  0  0  0  0  0
    8.8639  -21.7073    4.0034 N   0  0  0  0  0  0  0  0  0  0  0  0
    8.5476  -21.3878    4.9475 H   0  0  0  0  0  0  0  0  0  0  0  0
    8.9729  -20.7033    2.9388 C   0  0  0  0  0  0  0  0  0  0  0  0
    7.6167  -20.0994    2.6640 C   0  0  0  0  0  0  0  0  0  0  0  0
    6.9164  -20.5528    1.7204 O   0  0  0  0  0  0  0  0  0  0  0  0
    7.0976  -19.0591    3.5129 N   0  0  0  0  0  0  0  0  0  0  0  0
    7.6866  -18.7689    4.3293 H   0  0  0  0  0  0  0  0  0  0  0  0
    5.6930  -18.6234    3.4402 C   0  0  0  0  0  0  0  0  0  0  0  0
    5.5692  -17.1130    3.4387 C   0  0  0  0  0  0  0  0  0  0  0  0
    6.5007  -16.4159    3.9255 O   0  0  0  0  0  0  0  0  0  0  0  0
    4.3592  -16.4474    3.0286 N   0  0  0  0  0  0  0  0  0  0  0  0
    4.0756  -15.6179    3.6022 H   0  0  0  0  0  0  0  0  0  0  0  0
    3.6851  -16.5984    1.7260 C   0  0  0  0  0  0  0  0  0  0  0  0
    2.2682  -17.1014    1.8875 C   0  0  0  0  0  0  0  0  0  0  0  0
    1.3144  -16.4679    1.3716 O   0  0  0  0  0  0  0  0  0  0  0  0
    1.9705  -18.2232    2.7301 N   0  0  0  0  0  0  0  0  0  0  0  0
    1.8670  -19.5813    2.2255 C   0  0  0  0  0  0  0  0  0  0  0  0
    1.1174  -20.3606    3.2961 C   0  0  0  0  0  0  0  0  0  0  0  0
    1.2292  -19.5220    4.5675 C   0  0  0  0  0  0  0  0  0  0  0  0
    1.4798  -18.0887    4.0956 C   0  0  0  0  0  0  0  0  0  0  0  0
    0.2162  -17.2739    4.1386 C   0  0  0  0  0  0  0  0  0  0  0  0
    0.1888  -16.0865    4.8558 O   0  0  0  0  0  0  0  0  0  0  0  0
   -0.8226  -17.6820    3.5531 O   0  0  0  0  0  0  0  0  0  0  0  0
   -0.6562  -15.5308    4.9096 H   0  0  0  0  0  0  0  0  0  0  0  0
    3.7730  -15.2995    0.8990 C   0  0  0  0  0  0  0  0  0  0  0  0
    5.3793  -15.1354    0.0486 S   0  0  0  0  0  0  0  0  0  0  0  0
    5.2708  -16.3349   -0.6704 H   0  0  0  0  0  0  0  0  0  0  0  0
    4.8940  -19.2416    4.6079 C   0  0  0  0  0  0  0  0  0  0  0  0
    5.1773  -20.7105    4.7907 C   0  0  0  0  0  0  0  0  0  0  0  0
    5.8914  -21.2858    5.8169 C   0  0  0  0  0  0  0  0  0  0  0  0
    5.9613  -22.6160    5.6159 N   0  0  0  0  0  0  0  0  0  0  0  0
    5.2936  -22.8153    4.4593 C   0  0  0  0  0  0  0  0  0  0  0  0
    4.8049  -21.6774    3.9335 N   0  0  0  0  0  0  0  0  0  0  0  0
    4.2914  -21.5674    3.0309 H   0  0  0  0  0  0  0  0  0  0  0  0
    9.9660  -19.5969    3.3537 C   0  0  0  0  0  0  0  0  0  0  0  0
   11.4249  -19.9702    3.0402 C   0  0  0  0  0  0  0  0  0  0  0  0
   11.7230  -19.8165    1.5743 C   0  0  0  0  0  0  0  0  0  0  0  0
   12.4317  -20.6754    0.9847 O   0  0  0  0  0  0  0  0  0  0  0  0
   11.2157  -18.6967    0.8458 N   0  0  0  0  0  0  0  0  0  0  0  0
   11.3866  -18.6142   -0.1813 H   0  0  0  0  0  0  0  0  0  0  0  0
   10.6789  -17.9400    1.3235 H   0  0  0  0  0  0  0  0  0  0  0  0
   10.2726  -25.1750    4.9542 C   0  0  0  0  0  0  0  0  0  0  0  0
    9.4267  -26.0586    5.8872 C   0  0  0  0  0  0  0  0  0  0  0  0
   10.2518  -27.1496    6.5933 C   0  0  0  0  0  0  0  0  0  0  0  0
   11.4298  -27.7103    5.7691 C   0  0  0  0  0  0  0  0  0  0  0  0
   12.1230  -28.8061    6.4509 N   0  0  0  0  0  0  0  0  0  0  0  0
   11.5007  -29.6491    6.4561 H   0  0  0  0  0  0  0  0  0  0  0  0
   12.3033  -28.5349    7.4393 H   0  0  0  0  0  0  0  0  0  0  0  0
    6.8907  -21.1780    9.5216 C   0  0  0  0  0  0  0  0  0  0  0  0
    6.3070  -20.1850    9.0112 O   0  0  0  0  0  0  0  0  0  0  0  0
    8.2665  -21.4289    9.2240 N   0  0  0  0  0  0  0  0  0  0  0  0
    8.8885  -21.7942    9.9824 H   0  0  0  0  0  0  0  0  0  0  0  0
    6.1002  -22.2153   10.2642 C   0  0  0  0  0  0  0  0  0  0  0  0
    6.8871  -22.9797   12.5643 C   0  0  0  0  0  0  0  0  0  0  0  0
    7.9352  -22.9919   13.2733 O   0  0  0  0  0  0  0  0  0  0  0  0
    7.0208  -22.9535   11.1330 N   0  0  0  0  0  0  0  0  0  0  0  0
    7.9633  -23.1881   10.7531 H   0  0  0  0  0  0  0  0  0  0  0  0
    5.5268  -23.0949   13.2193 C   0  0  0  0  0  0  0  0  0  0  0  0
    4.4751  -20.9853   14.1480 C   0  0  0  0  0  0  0  0  0  0  0  0
    4.1829  -20.5807   12.9888 O   0  0  0  0  0  0  0  0  0  0  0  0
    5.3406  -22.1217   14.3055 N   0  0  0  0  0  0  0  0  0  0  0  0
    5.7982  -22.2603   15.2322 H   0  0  0  0  0  0  0  0  0  0  0  0
    3.9093  -20.3035   15.3712 C   0  0  0  0  0  0  0  0  0  0  0  0
    5.0294  -19.5711   16.1089 C   0  0  0  0  0  0  0  0  0  0  0  0
    1.9141  -21.7547   16.0339 C   0  0  0  0  0  0  0  0  0  0  0  0
    1.2139  -21.2744   15.1018 O   0  0  0  0  0  0  0  0  0  0  0  0
    3.2389  -21.2513   16.2784 N   0  0  0  0  0  0  0  0  0  0  0  0
    3.7338  -21.6237   17.1163 H   0  0  0  0  0  0  0  0  0  0  0  0
    1.3496  -22.8605   16.8914 C   0  0  0  0  0  0  0  0  0  0  0  0
    2.5262  -23.7187   18.9686 C   0  0  0  0  0  0  0  0  0  0  0  0
    2.3831  -24.8627   19.4837 O   0  0  0  0  0  0  0  0  0  0  0  0
    2.4422  -23.5885   17.5446 N   0  0  0  0  0  0  0  0  0  0  0  0
    2.8955  -24.3470   16.9960 H   0  0  0  0  0  0  0  0  0  0  0  0
    2.9389  -22.5671   19.8703 C   0  0  0  0  0  0  0  0  0  0  0  0
    5.4001  -22.3247   19.4225 C   0  0  0  0  0  0  0  0  0  0  0  0
    5.3977  -21.1950   18.8601 O   0  0  0  0  0  0  0  0  0  0  0  0
    4.3320  -22.6725   20.3098 N   0  0  0  0  0  0  0  0  0  0  0  0
    4.5668  -22.9594   21.2839 H   0  0  0  0  0  0  0  0  0  0  0  0
    6.2469  -24.5792   19.8468 N   0  0  0  0  0  0  0  0  0  0  0  0
    6.4724  -23.3406   19.0896 C   0  0  0  0  0  0  0  0  0  0  0  0
    7.0691  -25.2102   19.6979 H   0  0  0  0  0  0  0  0  0  0  0  0
    6.2467  -24.3501   20.8663 H   0  0  0  0  0  0  0  0  0  0  0  0
    6.5504  -23.6136   17.5711 C   0  0  0  0  0  0  0  0  0  0  0  0
    5.3449  -23.1965   16.9728 O   0  0  0  0  0  0  0  0  0  0  0  0
    7.7267  -22.8893   16.9011 C   0  0  0  0  0  0  0  0  0  0  0  0
    5.3148  -23.6066   16.0710 H   0  0  0  0  0  0  0  0  0  0  0  0
    1.9917  -22.4262   21.0746 C   0  0  0  0  0  0  0  0  0  0  0  0
    0.9645  -21.2887   20.9330 C   0  0  0  0  0  0  0  0  0  0  0  0
   -0.2531  -21.7121   20.1506 C   0  0  0  0  0  0  0  0  0  0  0  0
   -0.6460  -22.9080   20.1512 O   0  0  0  0  0  0  0  0  0  0  0  0
   -0.9855  -20.7398   19.4072 N   0  0  0  0  0  0  0  0  0  0  0  0
   -1.8394  -21.0160   18.8775 H   0  0  0  0  0  0  0  0  0  0  0  0
   -0.7039  -19.7319   19.4245 H   0  0  0  0  0  0  0  0  0  0  0  0
    0.3792  -23.8374   16.1619 C   0  0  0  0  0  0  0  0  0  0  0  0
   -0.6330  -24.6226   17.0220 C   0  0  0  0  0  0  0  0  0  0  0  0
   -1.8188  -25.2185   16.2983 C   0  0  0  0  0  0  0  0  0  0  0  0
   -2.5854  -25.9813   16.9383 O   0  0  0  0  0  0  0  0  0  0  0  0
   -2.0817  -24.9907   14.9097 N   0  0  0  0  0  0  0  0  0  0  0  0
   -1.4004  -24.5238   14.2766 H   0  0  0  0  0  0  0  0  0  0  0  0
   -2.9375  -25.4044   14.4695 H   0  0  0  0  0  0  0  0  0  0  0  0
    5.3334  -24.5343   13.7402 C   0  0  0  0  0  0  0  0  0  0  0  0
    4.2981  -24.5892   14.6895 O   0  0  0  0  0  0  0  0  0  0  0  0
    3.4539  -24.7236   14.1787 H   0  0  0  0  0  0  0  0  0  0  0  0
    5.3625  -23.1701    9.3076 C   0  0  0  0  0  0  0  0  0  0  0  0
    3.9514  -22.7055    9.0825 C   0  0  0  0  0  0  0  0  0  0  0  0
    2.9834  -22.5413   10.0561 C   0  0  0  0  0  0  0  0  0  0  0  0
    1.8259  -22.1744    9.4681 N   0  0  0  0  0  0  0  0  0  0  0  0
    2.1215  -22.1232    8.1484 C   0  0  0  0  0  0  0  0  0  0  0  0
    3.4083  -22.4326    7.8868 N   0  0  0  0  0  0  0  0  0  0  0  0
    3.8618  -22.4839    6.9492 H   0  0  0  0  0  0  0  0  0  0  0  0
 95 96  1  0  0  0
 96 91  1  0  0  0
 91 92  2  0  0  0
 91 93  1  0  0  0
 93 90  1  0  0  0
 90103  1  0  0  0
103104  1  0  0  0
104105  1  0  0  0
105106  2  0  0  0
105107  1  0  0  0
 90 86  1  0  0  0
 86 87  2  0  0  0
 86 88  1  0  0  0
 88 85  1  0  0  0
 85110  1  0  0  0
110111  1  0  0  0
111112  1  0  0  0
112113  2  0  0  0
112114  1  0  0  0
 85 81  1  0  0  0
 81 82  2  0  0  0
 81 83  1  0  0  0
 83 79  1  0  0  0
 79 80  1  0  0  0
 79 75  1  0  0  0
 75 76  2  0  0  0
 75 77  1  0  0  0
 77 74  1  0  0  0
 74117  1  0  0  0
117118  1  0  0  0
 74 70  1  0  0  0
 70 71  2  0  0  0
 70 72  1  0  0  0
 72 69  1  0  0  0
 69120  1  0  0  0
120121  1  0  0  0
121122  2  0  0  0
122123  1  0  0  0
123124  2  0  0  0
124125  1  0  0  0
 69 65  1  0  0  0
 65 66  2  0  0  0
 65 67  1  0  0  0
 67  1  1  0  0  0
  1  2  1  0  0  0
  2  3  2  0  0  0
  3  4  1  0  0  0
  4  5  2  0  0  0
  5  6  1  0  0  0
  5  7  1  0  0  0
  7  8  2  0  0  0
  1 10  1  0  0  0
 10 11  2  0  0  0
 10 12  1  0  0  0
 12 14  1  0  0  0
 14 58  1  0  0  0
 58 59  1  0  0  0
 59 60  1  0  0  0
 60 61  1  0  0  0
 61 62  1  0  0  0
 14 15  1  0  0  0
 15 16  2  0  0  0
 15 17  1  0  0  0
 17 19  1  0  0  0
 19 51  1  0  0  0
 51 52  1  0  0  0
 52 53  1  0  0  0
 53 54  2  0  0  0
 53 55  1  0  0  0
 19 20  1  0  0  0
 20 21  2  0  0  0
 20 22  1  0  0  0
 22 24  1  0  0  0
 24 44  1  0  0  0
 44 45  1  0  0  0
 45 46  2  0  0  0
 46 47  1  0  0  0
 47 48  2  0  0  0
 48 49  1  0  0  0
 24 25  1  0  0  0
 25 26  2  0  0  0
 25 27  1  0  0  0
 27 29  1  0  0  0
 29 41  1  0  0  0
 41 42  1  0  0  0
 29 30  1  0  0  0
 30 31  2  0  0  0
 30 32  1  0  0  0
 32 33  1  0  0  0
 33 34  1  0  0  0
 34 35  1  0  0  0
 35 36  1  0  0  0
 36 37  1  0  0  0
 37 38  1  0  0  0
 37 39  2  0  0  0
 96 99  1  0  0  0
 99100  1  0  0  0
 99101  1  0  0  0
125121  1  0  0  0
  8  2  1  0  0  0
 49 45  1  0  0  0
 36 32  1  0  0  0
 95 97  1  0  0  0
 95 98  1  0  0  0
 93 94  1  0  0  0
107108  1  0  0  0
107109  1  0  0  0
 88 89  1  0  0  0
114115  1  0  0  0
114116  1  0  0  0
 83 84  1  0  0  0
 77 78  1  0  0  0
118119  1  0  0  0
 72 73  1  0  0  0
125126  1  0  0  0
 67 68  1  0  0  0
  6  9  1  0  0  0
 12 13  1  0  0  0
 62 63  1  0  0  0
 62 64  1  0  0  0
 17 18  1  0  0  0
 55 56  1  0  0  0
 55 57  1  0  0  0
 22 23  1  0  0  0
 49 50  1  0  0  0
 27 28  1  0  0  0
 42 43  1  0  0  0
 38 40  1  0  0  0
100102  1  0  0  0
M  END
> <minimizedAffinity>
-6.30043

$$$$



126129  0  0  0  0  0  0  0  0999 V2000
   -8.5292   10.1919   20.2711 C   0  0  0  0  0  0  0  0  0  0  0  0
   -7.4023   11.0746   19.7870 C   0  0  0  0  0  0  0  0  0  0  0  0
   -6.1072   10.5582   19.6012 C   0  0  0  0  0  0  0  0  0  0  0  0
   -5.0859   11.3726   19.1063 C   0  0  0  0  0  0  0  0  0  0  0  0
   -5.3377   12.7180   18.8091 C   0  0  0  0  0  0  0  0  0  0  0  0
   -4.3123   13.5220   18.3129 O   0  0  0  0  0  0  0  0  0  0  0  0
   -6.6199   13.2442   19.0065 C   0  0  0  0  0  0  0  0  0  0  0  0
   -7.6471   12.4234   19.4837 C   0  0  0  0  0  0  0  0  0  0  0  0
   -4.4590   14.5084   18.1329 H   0  0  0  0  0  0  0  0  0  0  0  0
   -8.9721   10.6017   21.6514 C   0  0  0  0  0  0  0  0  0  0  0  0
   -9.9889   11.3277   21.8074 O   0  0  0  0  0  0  0  0  0  0  0  0
   -8.2059   10.1983   22.7946 N   0  0  0  0  0  0  0  0  0  0  0  0
   -7.8609    9.2108   22.8051 H   0  0  0  0  0  0  0  0  0  0  0  0
   -7.5599   11.1304   23.7334 C   0  0  0  0  0  0  0  0  0  0  0  0
   -8.3611   11.1766   25.0131 C   0  0  0  0  0  0  0  0  0  0  0  0
   -9.4435   11.8276   25.0690 O   0  0  0  0  0  0  0  0  0  0  0  0
   -7.8785   10.4853   26.1735 N   0  0  0  0  0  0  0  0  0  0  0  0
   -7.1080    9.7900   26.0451 H   0  0  0  0  0  0  0  0  0  0  0  0
   -8.1393   10.9796   27.5303 C   0  0  0  0  0  0  0  0  0  0  0  0
   -7.9351    9.8658   28.5289 C   0  0  0  0  0  0  0  0  0  0  0  0
   -8.6328    9.8380   29.5771 O   0  0  0  0  0  0  0  0  0  0  0  0
   -6.9988    8.8068   28.2567 N   0  0  0  0  0  0  0  0  0  0  0  0
   -6.4978    8.8353   27.3370 H   0  0  0  0  0  0  0  0  0  0  0  0
   -6.9520    7.5807   29.0707 C   0  0  0  0  0  0  0  0  0  0  0  0
   -5.5290    7.1644   29.3841 C   0  0  0  0  0  0  0  0  0  0  0  0
   -4.5748    7.7115   28.7671 O   0  0  0  0  0  0  0  0  0  0  0  0
   -5.2329    6.0619   30.2627 N   0  0  0  0  0  0  0  0  0  0  0  0
   -4.4455    5.4379   29.9656 H   0  0  0  0  0  0  0  0  0  0  0  0
   -5.6819    5.9217   31.6601 C   0  0  0  0  0  0  0  0  0  0  0  0
   -5.3459    7.1481   32.4785 C   0  0  0  0  0  0  0  0  0  0  0  0
   -6.2336    8.0022   32.7230 O   0  0  0  0  0  0  0  0  0  0  0  0
   -3.9970    7.4270   32.8780 N   0  0  0  0  0  0  0  0  0  0  0  0
   -3.4596    7.0294   34.1675 C   0  0  0  0  0  0  0  0  0  0  0  0
   -2.2134    7.8784   34.3719 C   0  0  0  0  0  0  0  0  0  0  0  0
   -1.8374    8.3951   32.9848 C   0  0  0  0  0  0  0  0  0  0  0  0
   -3.1288    8.3558   32.1659 C   0  0  0  0  0  0  0  0  0  0  0  0
   -3.7556    9.7200   32.0742 C   0  0  0  0  0  0  0  0  0  0  0  0
   -4.5659   10.0322   30.9920 O   0  0  0  0  0  0  0  0  0  0  0  0
   -3.5215   10.5871   32.9585 O   0  0  0  0  0  0  0  0  0  0  0  0
   -4.9853   10.9498   30.9039 H   0  0  0  0  0  0  0  0  0  0  0  0
   -7.1748    5.5406   31.7303 C   0  0  0  0  0  0  0  0  0  0  0  0
   -7.4739    4.1473   32.8702 S   0  0  0  0  0  0  0  0  0  0  0  0
   -6.9309    4.7807   33.9978 H   0  0  0  0  0  0  0  0  0  0  0  0
   -7.7129    6.4468   28.3499 C   0  0  0  0  0  0  0  0  0  0  0  0
   -9.2040    6.5287   28.5530 C   0  0  0  0  0  0  0  0  0  0  0  0
  -10.1154    7.1165   27.7057 C   0  0  0  0  0  0  0  0  0  0  0  0
  -11.3460    7.0219   28.2451 N   0  0  0  0  0  0  0  0  0  0  0  0
  -11.1488    6.3853   29.4195 C   0  0  0  0  0  0  0  0  0  0  0  0
   -9.8583    6.0719   29.6354 N   0  0  0  0  0  0  0  0  0  0  0  0
   -9.4514    5.6171   30.4828 H   0  0  0  0  0  0  0  0  0  0  0  0
   -7.1951   12.1564   27.8559 C   0  0  0  0  0  0  0  0  0  0  0  0
   -6.6945   12.1221   29.3100 C   0  0  0  0  0  0  0  0  0  0  0  0
   -5.6016   13.1305   29.5332 C   0  0  0  0  0  0  0  0  0  0  0  0
   -5.8548   14.3612   29.4400 O   0  0  0  0  0  0  0  0  0  0  0  0
   -4.2734   12.7026   29.8412 N   0  0  0  0  0  0  0  0  0  0  0  0
   -3.5256   13.4044   30.0391 H   0  0  0  0  0  0  0  0  0  0  0  0
   -4.0239   11.6896   29.8630 H   0  0  0  0  0  0  0  0  0  0  0  0
   -7.3175   12.5385   23.1327 C   0  0  0  0  0  0  0  0  0  0  0  0
   -5.9589   13.1297   23.5466 C   0  0  0  0  0  0  0  0  0  0  0  0
   -5.0073   13.3410   22.3552 C   0  0  0  0  0  0  0  0  0  0  0  0
   -4.4037   14.7572   22.2476 C   0  0  0  0  0  0  0  0  0  0  0  0
   -3.6630   14.9604   21.0002 N   0  0  0  0  0  0  0  0  0  0  0  0
   -4.3442   15.0033   20.2051 H   0  0  0  0  0  0  0  0  0  0  0  0
   -3.0337   14.1473   20.8392 H   0  0  0  0  0  0  0  0  0  0  0  0
  -10.0236    9.0492   18.6073 C   0  0  0  0  0  0  0  0  0  0  0  0
   -9.1448    8.3663   18.0167 O   0  0  0  0  0  0  0  0  0  0  0  0
   -9.6496   10.2274   19.3259 N   0  0  0  0  0  0  0  0  0  0  0  0
  -10.2874   11.0569   19.3021 H   0  0  0  0  0  0  0  0  0  0  0  0
  -11.4219    8.5211   18.7421 C   0  0  0  0  0  0  0  0  0  0  0  0
  -12.1049    7.8147   16.3908 C   0  0  0  0  0  0  0  0  0  0  0  0
  -12.0825    8.2537   15.2041 O   0  0  0  0  0  0  0  0  0  0  0  0
  -12.1216    8.7572   17.4765 N   0  0  0  0  0  0  0  0  0  0  0  0
  -12.3568    9.7425   17.2288 H   0  0  0  0  0  0  0  0  0  0  0  0
  -12.2156    6.3265   16.6471 C   0  0  0  0  0  0  0  0  0  0  0  0
  -10.8972    4.7158   18.0915 C   0  0  0  0  0  0  0  0  0  0  0  0
  -11.8601    4.5995   18.8991 O   0  0  0  0  0  0  0  0  0  0  0  0
  -10.9412    5.7326   17.0768 N   0  0  0  0  0  0  0  0  0  0  0  0
  -10.0436    6.0046   16.6210 H   0  0  0  0  0  0  0  0  0  0  0  0
   -9.7093    3.7859   18.1644 C   0  0  0  0  0  0  0  0  0  0  0  0
   -8.4674    4.5055   17.6396 C   0  0  0  0  0  0  0  0  0  0  0  0
   -9.8931    2.4828   15.9749 C   0  0  0  0  0  0  0  0  0  0  0  0
   -9.8230    3.5451   15.2992 O   0  0  0  0  0  0  0  0  0  0  0  0
   -9.9297    2.5389   17.4115 N   0  0  0  0  0  0  0  0  0  0  0  0
  -10.0780    1.6367   17.9114 H   0  0  0  0  0  0  0  0  0  0  0  0
   -9.9401    1.1530   15.2634 C   0  0  0  0  0  0  0  0  0  0  0  0
   -9.9312   -1.2592   16.0490 C   0  0  0  0  0  0  0  0  0  0  0  0
   -9.1110   -2.1520   15.6959 O   0  0  0  0  0  0  0  0  0  0  0  0
   -9.4720    0.0929   16.1621 N   0  0  0  0  0  0  0  0  0  0  0  0
   -8.5269    0.2136   16.5791 H   0  0  0  0  0  0  0  0  0  0  0  0
  -11.3207   -1.6886   16.4902 C   0  0  0  0  0  0  0  0  0  0  0  0
  -11.3222   -4.0050   17.4655 C   0  0  0  0  0  0  0  0  0  0  0  0
  -11.9084   -3.7690   18.5579 O   0  0  0  0  0  0  0  0  0  0  0  0
  -11.5307   -3.1314   16.3509 N   0  0  0  0  0  0  0  0  0  0  0  0
  -11.8747   -3.5392   15.4555 H   0  0  0  0  0  0  0  0  0  0  0  0
   -9.8645   -5.2837   15.9756 N   0  0  0  0  0  0  0  0  0  0  0  0
  -10.3335   -5.1470   17.3611 C   0  0  0  0  0  0  0  0  0  0  0  0
   -9.2882   -6.1553   15.9078 H   0  0  0  0  0  0  0  0  0  0  0  0
  -10.6927   -5.4432   15.3587 H   0  0  0  0  0  0  0  0  0  0  0  0
   -9.1528   -4.9731   18.3421 C   0  0  0  0  0  0  0  0  0  0  0  0
   -8.8809   -3.5981   18.4854 O   0  0  0  0  0  0  0  0  0  0  0  0
   -9.4385   -5.5805   19.7228 C   0  0  0  0  0  0  0  0  0  0  0  0
   -7.9839   -3.5243   18.9003 H   0  0  0  0  0  0  0  0  0  0  0  0
  -12.4160   -0.8999   15.7517 C   0  0  0  0  0  0  0  0  0  0  0  0
  -13.5915   -0.4720   16.6484 C   0  0  0  0  0  0  0  0  0  0  0  0
  -13.7739    1.0246   16.6766 C   0  0  0  0  0  0  0  0  0  0  0  0
  -12.9734    1.7679   17.3021 O   0  0  0  0  0  0  0  0  0  0  0  0
  -14.8632    1.6147   15.9698 N   0  0  0  0  0  0  0  0  0  0  0  0
  -14.9895    2.6490   15.9659 H   0  0  0  0  0  0  0  0  0  0  0  0
  -15.5179    1.0222   15.4077 H   0  0  0  0  0  0  0  0  0  0  0  0
   -9.1923    1.1037   13.8972 C   0  0  0  0  0  0  0  0  0  0  0  0
  -10.0406    1.1627   12.6096 C   0  0  0  0  0  0  0  0  0  0  0  0
  -10.2363   -0.1391   11.8667 C   0  0  0  0  0  0  0  0  0  0  0  0
  -10.8600   -1.0657   12.4427 O   0  0  0  0  0  0  0  0  0  0  0  0
   -9.7056   -0.3799   10.5592 N   0  0  0  0  0  0  0  0  0  0  0  0
   -9.0318    0.2648   10.0973 H   0  0  0  0  0  0  0  0  0  0  0  0
   -9.9008   -1.2908   10.0802 H   0  0  0  0  0  0  0  0  0  0  0  0
  -12.7384    5.6288   15.3741 C   0  0  0  0  0  0  0  0  0  0  0  0
  -11.7216    5.5171   14.4099 O   0  0  0  0  0  0  0  0  0  0  0  0
  -11.2392    4.6682   14.6058 H   0  0  0  0  0  0  0  0  0  0  0  0
  -12.1731    9.1756   19.9161 C   0  0  0  0  0  0  0  0  0  0  0  0
  -13.1723    8.2188   20.5024 C   0  0  0  0  0  0  0  0  0  0  0  0
  -14.2120    8.5474   21.3528 C   0  0  0  0  0  0  0  0  0  0  0  0
  -14.8537    7.4187   21.7195 N   0  0  0  0  0  0  0  0  0  0  0  0
  -14.1868    6.4304   21.0792 C   0  0  0  0  0  0  0  0  0  0  0  0
  -13.1661    6.8892   20.3257 N   0  0  0  0  0  0  0  0  0  0  0  0
  -12.4981    6.3197   19.7627 H   0  0  0  0  0  0  0  0  0  0  0  0
 95 96  1  0  0  0
 96 91  1  0  0  0
 91 92  2  0  0  0
 91 93  1  0  0  0
 93 90  1  0  0  0
 90103  1  0  0  0
103104  1  0  0  0
104105  1  0  0  0
105106  2  0  0  0
105107  1  0  0  0
 90 86  1  0  0  0
 86 87  2  0  0  0
 86 88  1  0  0  0
 88 85  1  0  0  0
 85110  1  0  0  0
110111  1  0  0  0
111112  1  0  0  0
112113  2  0  0  0
112114  1  0  0  0
 85 81  1  0  0  0
 81 82  2  0  0  0
 81 83  1  0  0  0
 83 79  1  0  0  0
 79 80  1  0  0  0
 79 75  1  0  0  0
 75 76  2  0  0  0
 75 77  1  0  0  0
 77 74  1  0  0  0
 74117  1  0  0  0
117118  1  0  0  0
 74 70  1  0  0  0
 70 71  2  0  0  0
 70 72  1  0  0  0
 72 69  1  0  0  0
 69120  1  0  0  0
120121  1  0  0  0
121122  2  0  0  0
122123  1  0  0  0
123124  2  0  0  0
124125  1  0  0  0
 69 65  1  0  0  0
 65 66  2  0  0  0
 65 67  1  0  0  0
 67  1  1  0  0  0
  1  2  1  0  0  0
  2  3  2  0  0  0
  3  4  1  0  0  0
  4  5  2  0  0  0
  5  6  1  0  0  0
  5  7  1  0  0  0
  7  8  2  0  0  0
  1 10  1  0  0  0
 10 11  2  0  0  0
 10 12  1  0  0  0
 12 14  1  0  0  0
 14 58  1  0  0  0
 58 59  1  0  0  0
 59 60  1  0  0  0
 60 61  1  0  0  0
 61 62  1  0  0  0
 14 15  1  0  0  0
 15 16  2  0  0  0
 15 17  1  0  0  0
 17 19  1  0  0  0
 19 51  1  0  0  0
 51 52  1  0  0  0
 52 53  1  0  0  0
 53 54  2  0  0  0
 53 55  1  0  0  0
 19 20  1  0  0  0
 20 21  2  0  0  0
 20 22  1  0  0  0
 22 24  1  0  0  0
 24 44  1  0  0  0
 44 45  1  0  0  0
 45 46  2  0  0  0
 46 47  1  0  0  0
 47 48  2  0  0  0
 48 49  1  0  0  0
 24 25  1  0  0  0
 25 26  2  0  0  0
 25 27  1  0  0  0
 27 29  1  0  0  0
 29 41  1  0  0  0
 41 42  1  0  0  0
 29 30  1  0  0  0
 30 31  2  0  0  0
 30 32  1  0  0  0
 32 33  1  0  0  0
 33 34  1  0  0  0
 34 35  1  0  0  0
 35 36  1  0  0  0
 36 37  1  0  0  0
 37 38  1  0  0  0
 37 39  2  0  0  0
 96 99  1  0  0  0
 99100  1  0  0  0
 99101  1  0  0  0
125121  1  0  0  0
  8  2  1  0  0  0
 49 45  1  0  0  0
 36 32  1  0  0  0
 95 97  1  0  0  0
 95 98  1  0  0  0
 93 94  1  0  0  0
107108  1  0  0  0
107109  1  0  0  0
 88 89  1  0  0  0
114115  1  0  0  0
114116  1  0  0  0
 83 84  1  0  0  0
 77 78  1  0  0  0
118119  1  0  0  0
 72 73  1  0  0  0
125126  1  0  0  0
 67 68  1  0  0  0
  6  9  1  0  0  0
 12 13  1  0  0  0
 62 63  1  0  0  0
 62 64  1  0  0  0
 17 18  1  0  0  0
 55 56  1  0  0  0
 55 57  1  0  0  0
 22 23  1  0  0  0
 49 50  1  0  0  0
 27 28  1  0  0  0
 42 43  1  0  0  0
 38 40  1  0  0  0
100102  1  0  0  0
M  END
> <minimizedAffinity>
-6.29680

$$$$



126129  0  0  0  0  0  0  0  0999 V2000
    2.9268  -21.9838   19.8052 C   0  0  0  0  0  0  0  0  0  0  0  0
    1.5876  -21.2850   19.7620 C   0  0  0  0  0  0  0  0  0  0  0  0
    1.0257  -20.8726   18.5403 C   0  0  0  0  0  0  0  0  0  0  0  0
   -0.2351  -20.2720   18.5094 C   0  0  0  0  0  0  0  0  0  0  0  0
   -0.9434  -20.0564   19.6983 C   0  0  0  0  0  0  0  0  0  0  0  0
   -2.2024  -19.4587   19.6566 O   0  0  0  0  0  0  0  0  0  0  0  0
   -0.3842  -20.4490   20.9202 C   0  0  0  0  0  0  0  0  0  0  0  0
    0.8698  -21.0680   20.9490 C   0  0  0  0  0  0  0  0  0  0  0  0
   -2.7138  -19.2522   20.5068 H   0  0  0  0  0  0  0  0  0  0  0  0
    2.8708  -23.1881   20.7084 C   0  0  0  0  0  0  0  0  0  0  0  0
    3.9219  -23.6472   21.2279 O   0  0  0  0  0  0  0  0  0  0  0  0
    1.6174  -23.8438   20.9449 N   0  0  0  0  0  0  0  0  0  0  0  0
    0.7888  -23.2279   21.1134 H   0  0  0  0  0  0  0  0  0  0  0  0
    1.3345  -25.2463   20.5982 C   0  0  0  0  0  0  0  0  0  0  0  0
   -0.0288  -25.3301   19.9533 C   0  0  0  0  0  0  0  0  0  0  0  0
   -0.9766  -24.5984   20.3595 O   0  0  0  0  0  0  0  0  0  0  0  0
   -0.2468  -26.2577   18.8812 N   0  0  0  0  0  0  0  0  0  0  0  0
    0.5910  -26.6891   18.4279 H   0  0  0  0  0  0  0  0  0  0  0  0
   -1.5499  -26.8976   18.6674 C   0  0  0  0  0  0  0  0  0  0  0  0
   -1.8263  -27.0140   17.1877 C   0  0  0  0  0  0  0  0  0  0  0  0
   -1.7029  -28.1318   16.6206 O   0  0  0  0  0  0  0  0  0  0  0  0
   -2.2915  -25.8738   16.4423 N   0  0  0  0  0  0  0  0  0  0  0  0
   -2.4502  -24.9857   16.9750 H   0  0  0  0  0  0  0  0  0  0  0  0
   -2.8122  -26.0000   15.0707 C   0  0  0  0  0  0  0  0  0  0  0  0
   -2.3813  -24.8417   14.1938 C   0  0  0  0  0  0  0  0  0  0  0  0
   -2.8034  -23.6813   14.4509 O   0  0  0  0  0  0  0  0  0  0  0  0
   -1.6178  -25.0404   12.9884 N   0  0  0  0  0  0  0  0  0  0  0  0
   -1.8919  -24.4474   12.1694 H   0  0  0  0  0  0  0  0  0  0  0  0
   -0.3146  -25.7229   12.8898 C   0  0  0  0  0  0  0  0  0  0  0  0
    0.5430  -25.4639   14.1081 C   0  0  0  0  0  0  0  0  0  0  0  0
    0.5942  -26.3131   15.0319 O   0  0  0  0  0  0  0  0  0  0  0  0
    1.2049  -24.2055   14.2957 N   0  0  0  0  0  0  0  0  0  0  0  0
    2.5804  -23.9714   13.8919 C   0  0  0  0  0  0  0  0  0  0  0  0
    3.0249  -22.7295   14.6505 C   0  0  0  0  0  0  0  0  0  0  0  0
    1.7379  -22.0428   15.1027 C   0  0  0  0  0  0  0  0  0  0  0  0
    0.6746  -23.1419   15.1390 C   0  0  0  0  0  0  0  0  0  0  0  0
    0.4446  -23.6289   16.5434 C   0  0  0  0  0  0  0  0  0  0  0  0
    1.4850  -24.2230   17.2433 O   0  0  0  0  0  0  0  0  0  0  0  0
   -0.6951  -23.5277   17.0718 O   0  0  0  0  0  0  0  0  0  0  0  0
    1.3468  -24.5710   18.1843 H   0  0  0  0  0  0  0  0  0  0  0  0
   -0.4934  -27.2246   12.5868 C   0  0  0  0  0  0  0  0  0  0  0  0
    0.8895  -27.8948   11.6025 S   0  0  0  0  0  0  0  0  0  0  0  0
    1.8873  -27.5523   12.5269 H   0  0  0  0  0  0  0  0  0  0  0  0
   -4.3509  -26.1230   15.1063 C   0  0  0  0  0  0  0  0  0  0  0  0
   -4.8494  -27.3656   14.4144 C   0  0  0  0  0  0  0  0  0  0  0  0
   -4.0871  -28.2836   13.7288 C   0  0  0  0  0  0  0  0  0  0  0  0
   -4.8927  -29.2354   13.2193 N   0  0  0  0  0  0  0  0  0  0  0  0
   -6.1334  -28.8632   13.6006 C   0  0  0  0  0  0  0  0  0  0  0  0
   -6.1406  -27.7316   14.3284 N   0  0  0  0  0  0  0  0  0  0  0  0
   -6.9741  -27.2249   14.7011 H   0  0  0  0  0  0  0  0  0  0  0  0
   -1.5652  -28.2980   19.3163 C   0  0  0  0  0  0  0  0  0  0  0  0
   -2.7418  -28.4807   20.2901 C   0  0  0  0  0  0  0  0  0  0  0  0
   -2.2626  -28.5634   21.7131 C   0  0  0  0  0  0  0  0  0  0  0  0
   -1.0272  -28.6019   21.9579 O   0  0  0  0  0  0  0  0  0  0  0  0
   -3.1995  -28.6084   22.7912 N   0  0  0  0  0  0  0  0  0  0  0  0
   -2.8650  -28.6214   23.7806 H   0  0  0  0  0  0  0  0  0  0  0  0
   -4.2270  -28.6404   22.6125 H   0  0  0  0  0  0  0  0  0  0  0  0
    1.4862  -26.2183   21.7960 C   0  0  0  0  0  0  0  0  0  0  0  0
    2.5087  -27.3348   21.5228 C   0  0  0  0  0  0  0  0  0  0  0  0
    3.2772  -27.1365   20.2038 C   0  0  0  0  0  0  0  0  0  0  0  0
    4.7926  -27.4160   20.2852 C   0  0  0  0  0  0  0  0  0  0  0  0
    5.5918  -26.1884   20.3001 N   0  0  0  0  0  0  0  0  0  0  0  0
    5.4563  -25.7074   21.2211 H   0  0  0  0  0  0  0  0  0  0  0  0
    5.2521  -25.5495   19.5521 H   0  0  0  0  0  0  0  0  0  0  0  0
    4.7189  -22.2076   18.0601 C   0  0  0  0  0  0  0  0  0  0  0  0
    5.3222  -21.1243   18.2831 O   0  0  0  0  0  0  0  0  0  0  0  0
    3.3525  -22.3585   18.4531 N   0  0  0  0  0  0  0  0  0  0  0  0
    2.7052  -22.8975   17.8317 H   0  0  0  0  0  0  0  0  0  0  0  0
    5.4814  -23.4088   17.5825 C   0  0  0  0  0  0  0  0  0  0  0  0
    4.4943  -25.6329   16.8258 C   0  0  0  0  0  0  0  0  0  0  0  0
    3.3714  -26.2070   16.7206 O   0  0  0  0  0  0  0  0  0  0  0  0
    4.6507  -24.5945   17.8080 N   0  0  0  0  0  0  0  0  0  0  0  0
    3.9097  -24.5357   18.5394 H   0  0  0  0  0  0  0  0  0  0  0  0
    5.6701  -26.1094   15.9995 C   0  0  0  0  0  0  0  0  0  0  0  0
    5.8690  -25.3926   13.5776 C   0  0  0  0  0  0  0  0  0  0  0  0
    6.3005  -24.2555   13.9148 O   0  0  0  0  0  0  0  0  0  0  0  0
    5.3306  -26.2724   14.5783 N   0  0  0  0  0  0  0  0  0  0  0  0
    4.7264  -27.0602   14.2596 H   0  0  0  0  0  0  0  0  0  0  0  0
    5.9314  -25.8488   12.1391 C   0  0  0  0  0  0  0  0  0  0  0  0
    7.2593  -26.5625   11.8891 C   0  0  0  0  0  0  0  0  0  0  0  0
    5.1319  -24.8862    9.9120 C   0  0  0  0  0  0  0  0  0  0  0  0
    4.8252  -26.0338    9.4892 O   0  0  0  0  0  0  0  0  0  0  0  0
    5.7690  -24.7320   11.1920 N   0  0  0  0  0  0  0  0  0  0  0  0
    6.0791  -23.7705   11.4477 H   0  0  0  0  0  0  0  0  0  0  0  0
    4.8265  -23.6768    9.0629 C   0  0  0  0  0  0  0  0  0  0  0  0
    7.1779  -24.0522    8.1877 C   0  0  0  0  0  0  0  0  0  0  0  0
    7.5480  -24.9963    7.4353 O   0  0  0  0  0  0  0  0  0  0  0  0
    5.8562  -23.5229    8.0302 N   0  0  0  0  0  0  0  0  0  0  0  0
    5.5262  -23.4214    7.0490 H   0  0  0  0  0  0  0  0  0  0  0  0
    8.2054  -23.4195    9.1114 C   0  0  0  0  0  0  0  0  0  0  0  0
    8.5525  -20.9487    8.8086 C   0  0  0  0  0  0  0  0  0  0  0  0
    8.5293  -20.5869   10.0173 O   0  0  0  0  0  0  0  0  0  0  0  0
    8.9061  -22.2972    8.4833 N   0  0  0  0  0  0  0  0  0  0  0  0
    9.6979  -22.4599    7.8253 H   0  0  0  0  0  0  0  0  0  0  0  0
    6.7885  -19.4492    8.0217 N   0  0  0  0  0  0  0  0  0  0  0  0
    8.1190  -19.9928    7.7174 C   0  0  0  0  0  0  0  0  0  0  0  0
    6.4609  -18.8982    7.1938 H   0  0  0  0  0  0  0  0  0  0  0  0
    6.1179  -20.2451    8.1154 H   0  0  0  0  0  0  0  0  0  0  0  0
    9.1529  -18.8657    7.5000 C   0  0  0  0  0  0  0  0  0  0  0  0
    9.2263  -18.0855    8.6709 O   0  0  0  0  0  0  0  0  0  0  0  0
   10.5500  -19.4042    7.1605 C   0  0  0  0  0  0  0  0  0  0  0  0
    9.6862  -17.2424    8.4260 H   0  0  0  0  0  0  0  0  0  0  0  0
    9.2038  -24.4624    9.6433 C   0  0  0  0  0  0  0  0  0  0  0  0
   10.3125  -23.8709   10.5321 C   0  0  0  0  0  0  0  0  0  0  0  0
    9.9808  -23.9671   11.9999 C   0  0  0  0  0  0  0  0  0  0  0  0
   10.6797  -24.6622   12.7828 O   0  0  0  0  0  0  0  0  0  0  0  0
    8.8647  -23.2460   12.5183 N   0  0  0  0  0  0  0  0  0  0  0  0
    8.6360  -23.2891   13.5341 H   0  0  0  0  0  0  0  0  0  0  0  0
    8.2933  -22.6279   11.8962 H   0  0  0  0  0  0  0  0  0  0  0  0
    4.6158  -22.3485    9.8501 C   0  0  0  0  0  0  0  0  0  0  0  0
    3.3130  -22.1917   10.6619 C   0  0  0  0  0  0  0  0  0  0  0  0
    2.0487  -22.7191   10.0230 C   0  0  0  0  0  0  0  0  0  0  0  0
    1.4694  -22.0025    9.1685 O   0  0  0  0  0  0  0  0  0  0  0  0
    1.4579  -23.9735   10.3791 N   0  0  0  0  0  0  0  0  0  0  0  0
    1.7745  -24.5331   11.1974 H   0  0  0  0  0  0  0  0  0  0  0  0
    0.5981  -24.3020    9.8790 H   0  0  0  0  0  0  0  0  0  0  0  0
    6.2010  -27.4338   16.5867 C   0  0  0  0  0  0  0  0  0  0  0  0
    7.0707  -27.1917   17.6643 O   0  0  0  0  0  0  0  0  0  0  0  0
    6.5004  -27.1278   18.4781 H   0  0  0  0  0  0  0  0  0  0  0  0
    6.8407  -23.5468   18.2927 C   0  0  0  0  0  0  0  0  0  0  0  0
    7.9558  -23.6208   17.2884 C   0  0  0  0  0  0  0  0  0  0  0  0
    8.2810  -22.6490   16.3600 C   0  0  0  0  0  0  0  0  0  0  0  0
    9.2949  -23.0972   15.5909 N   0  0  0  0  0  0  0  0  0  0  0  0
    9.5617  -24.3328   16.0742 C   0  0  0  0  0  0  0  0  0  0  0  0
    8.7690  -24.6727   17.1115 N   0  0  0  0  0  0  0  0  0  0  0  0
    8.7706  -25.5771   17.6307 H   0  0  0  0  0  0  0  0  0  0  0  0
 95 96  1  0  0  0
 96 91  1  0  0  0
 91 92  2  0  0  0
 91 93  1  0  0  0
 93 90  1  0  0  0
 90103  1  0  0  0
103104  1  0  0  0
104105  1  0  0  0
105106  2  0  0  0
105107  1  0  0  0
 90 86  1  0  0  0
 86 87  2  0  0  0
 86 88  1  0  0  0
 88 85  1  0  0  0
 85110  1  0  0  0
110111  1  0  0  0
111112  1  0  0  0
112113  2  0  0  0
112114  1  0  0  0
 85 81  1  0  0  0
 81 82  2  0  0  0
 81 83  1  0  0  0
 83 79  1  0  0  0
 79 80  1  0  0  0
 79 75  1  0  0  0
 75 76  2  0  0  0
 75 77  1  0  0  0
 77 74  1  0  0  0
 74117  1  0  0  0
117118  1  0  0  0
 74 70  1  0  0  0
 70 71  2  0  0  0
 70 72  1  0  0  0
 72 69  1  0  0  0
 69120  1  0  0  0
120121  1  0  0  0
121122  2  0  0  0
122123  1  0  0  0
123124  2  0  0  0
124125  1  0  0  0
 69 65  1  0  0  0
 65 66  2  0  0  0
 65 67  1  0  0  0
 67  1  1  0  0  0
  1  2  1  0  0  0
  2  3  2  0  0  0
  3  4  1  0  0  0
  4  5  2  0  0  0
  5  6  1  0  0  0
  5  7  1  0  0  0
  7  8  2  0  0  0
  1 10  1  0  0  0
 10 11  2  0  0  0
 10 12  1  0  0  0
 12 14  1  0  0  0
 14 58  1  0  0  0
 58 59  1  0  0  0
 59 60  1  0  0  0
 60 61  1  0  0  0
 61 62  1  0  0  0
 14 15  1  0  0  0
 15 16  2  0  0  0
 15 17  1  0  0  0
 17 19  1  0  0  0
 19 51  1  0  0  0
 51 52  1  0  0  0
 52 53  1  0  0  0
 53 54  2  0  0  0
 53 55  1  0  0  0
 19 20  1  0  0  0
 20 21  2  0  0  0
 20 22  1  0  0  0
 22 24  1  0  0  0
 24 44  1  0  0  0
 44 45  1  0  0  0
 45 46  2  0  0  0
 46 47  1  0  0  0
 47 48  2  0  0  0
 48 49  1  0  0  0
 24 25  1  0  0  0
 25 26  2  0  0  0
 25 27  1  0  0  0
 27 29  1  0  0  0
 29 41  1  0  0  0
 41 42  1  0  0  0
 29 30  1  0  0  0
 30 31  2  0  0  0
 30 32  1  0  0  0
 32 33  1  0  0  0
 33 34  1  0  0  0
 34 35  1  0  0  0
 35 36  1  0  0  0
 36 37  1  0  0  0
 37 38  1  0  0  0
 37 39  2  0  0  0
 96 99  1  0  0  0
 99100  1  0  0  0
 99101  1  0  0  0
125121  1  0  0  0
  8  2  1  0  0  0
 49 45  1  0  0  0
 36 32  1  0  0  0
 95 97  1  0  0  0
 95 98  1  0  0  0
 93 94  1  0  0  0
107108  1  0  0  0
107109  1  0  0  0
 88 89  1  0  0  0
114115  1  0  0  0
114116  1  0  0  0
 83 84  1  0  0  0
 77 78  1  0  0  0
118119  1  0  0  0
 72 73  1  0  0  0
125126  1  0  0  0
 67 68  1  0  0  0
  6  9  1  0  0  0
 12 13  1  0  0  0
 62 63  1  0  0  0
 62 64  1  0  0  0
 17 18  1  0  0  0
 55 56  1  0  0  0
 55 57  1  0  0  0
 22 23  1  0  0  0
 49 50  1  0  0  0
 27 28  1  0  0  0
 42 43  1  0  0  0
 38 40  1  0  0  0
100102  1  0  0  0
M  END
> <minimizedAffinity>
-6.19912

$$$$



126129  0  0  0  0  0  0  0  0999 V2000
    8.6784  -21.3773    8.0059 C   0  0  0  0  0  0  0  0  0  0  0  0
    9.6161  -20.2265    7.7229 C   0  0  0  0  0  0  0  0  0  0  0  0
    9.3968  -18.9581    8.2900 C   0  0  0  0  0  0  0  0  0  0  0  0
   10.2980  -17.9159    8.0602 C   0  0  0  0  0  0  0  0  0  0  0  0
   11.4190  -18.1191    7.2455 C   0  0  0  0  0  0  0  0  0  0  0  0
   12.3143  -17.0733    7.0245 O   0  0  0  0  0  0  0  0  0  0  0  0
   11.6360  -19.3740    6.6639 C   0  0  0  0  0  0  0  0  0  0  0  0
   10.7438  -20.4228    6.9099 C   0  0  0  0  0  0  0  0  0  0  0  0
   13.1075  -17.1836    6.4036 H   0  0  0  0  0  0  0  0  0  0  0  0
    9.3107  -22.6881    7.6171 C   0  0  0  0  0  0  0  0  0  0  0  0
   10.2754  -23.1538    8.2789 O   0  0  0  0  0  0  0  0  0  0  0  0
    8.8395  -23.3908    6.4591 N   0  0  0  0  0  0  0  0  0  0  0  0
    7.8029  -23.4372    6.3264 H   0  0  0  0  0  0  0  0  0  0  0  0
    9.6675  -23.7042    5.2828 C   0  0  0  0  0  0  0  0  0  0  0  0
    9.1026  -22.9911    4.0772 C   0  0  0  0  0  0  0  0  0  0  0  0
    8.9793  -23.5959    2.9737 O   0  0  0  0  0  0  0  0  0  0  0  0
    8.7169  -21.6140    4.1879 N   0  0  0  0  0  0  0  0  0  0  0  0
    8.6280  -21.2052    5.1463 H   0  0  0  0  0  0  0  0  0  0  0  0
    8.8221  -20.6895    3.0533 C   0  0  0  0  0  0  0  0  0  0  0  0
    7.4578  -20.1397    2.7128 C   0  0  0  0  0  0  0  0  0  0  0  0
    6.7701  -20.6993    1.8183 O   0  0  0  0  0  0  0  0  0  0  0  0
    6.9174  -19.0266    3.4483 N   0  0  0  0  0  0  0  0  0  0  0  0
    7.4972  -18.6442    4.2328 H   0  0  0  0  0  0  0  0  0  0  0  0
    5.5063  -18.6240    3.3260 C   0  0  0  0  0  0  0  0  0  0  0  0
    5.3554  -17.1205    3.2118 C   0  0  0  0  0  0  0  0  0  0  0  0
    6.2565  -16.3715    3.6784 O   0  0  0  0  0  0  0  0  0  0  0  0
    4.1488  -16.5107    2.7142 N   0  0  0  0  0  0  0  0  0  0  0  0
    3.8302  -15.6485    3.2168 H   0  0  0  0  0  0  0  0  0  0  0  0
    3.5237  -16.7679    1.4038 C   0  0  0  0  0  0  0  0  0  0  0  0
    4.5604  -16.9321    0.3152 C   0  0  0  0  0  0  0  0  0  0  0  0
    4.8343  -18.0767   -0.1234 O   0  0  0  0  0  0  0  0  0  0  0  0
    5.3378  -15.8177   -0.1435 N   0  0  0  0  0  0  0  0  0  0  0  0
    4.9684  -15.0238   -1.3025 C   0  0  0  0  0  0  0  0  0  0  0  0
    6.2309  -14.2772   -1.7076 C   0  0  0  0  0  0  0  0  0  0  0  0
    7.1452  -14.3246   -0.4853 C   0  0  0  0  0  0  0  0  0  0  0  0
    6.6901  -15.5407    0.3234 C   0  0  0  0  0  0  0  0  0  0  0  0
    7.5953  -16.7188    0.0886 C   0  0  0  0  0  0  0  0  0  0  0  0
    7.7724  -17.2029   -1.1996 O   0  0  0  0  0  0  0  0  0  0  0  0
    8.1658  -17.2847    1.0596 O   0  0  0  0  0  0  0  0  0  0  0  0
    8.3657  -18.0042   -1.3772 H   0  0  0  0  0  0  0  0  0  0  0  0
    2.5367  -17.9506    1.4796 C   0  0  0  0  0  0  0  0  0  0  0  0
    1.0300  -17.5271    2.4183 S   0  0  0  0  0  0  0  0  0  0  0  0
    0.6623  -16.4502    1.5983 H   0  0  0  0  0  0  0  0  0  0  0  0
    4.7024  -19.1700    4.5259 C   0  0  0  0  0  0  0  0  0  0  0  0
    5.0429  -20.6022    4.8486 C   0  0  0  0  0  0  0  0  0  0  0  0
    5.7583  -21.0494    5.9359 C   0  0  0  0  0  0  0  0  0  0  0  0
    5.8882  -22.3880    5.8599 N   0  0  0  0  0  0  0  0  0  0  0  0
    5.2545  -22.7214    4.7151 C   0  0  0  0  0  0  0  0  0  0  0  0
    4.7300  -21.6588    4.0779 N   0  0  0  0  0  0  0  0  0  0  0  0
    4.2319  -21.6545    3.1601 H   0  0  0  0  0  0  0  0  0  0  0  0
    9.7829  -19.5324    3.4001 C   0  0  0  0  0  0  0  0  0  0  0  0
   11.2407  -19.8470    3.0230 C   0  0  0  0  0  0  0  0  0  0  0  0
   11.4477  -19.7658    1.5358 C   0  0  0  0  0  0  0  0  0  0  0  0
   12.1279  -20.6485    0.9479 O   0  0  0  0  0  0  0  0  0  0  0  0
   10.8859  -18.6880    0.7843 N   0  0  0  0  0  0  0  0  0  0  0  0
   10.9933  -18.6566   -0.2542 H   0  0  0  0  0  0  0  0  0  0  0  0
   10.3715  -17.9118    1.2553 H   0  0  0  0  0  0  0  0  0  0  0  0
    9.8459  -25.2253    5.0443 C   0  0  0  0  0  0  0  0  0  0  0  0
    9.7876  -26.0372    6.3497 C   0  0  0  0  0  0  0  0  0  0  0  0
   11.0823  -26.8222    6.6276 C   0  0  0  0  0  0  0  0  0  0  0  0
   11.1119  -28.2536    6.0518 C   0  0  0  0  0  0  0  0  0  0  0  0
   12.4450  -28.6471    5.5893 N   0  0  0  0  0  0  0  0  0  0  0  0
   13.0656  -28.7844    6.4223 H   0  0  0  0  0  0  0  0  0  0  0  0
   12.8478  -27.8800    5.0128 H   0  0  0  0  0  0  0  0  0  0  0  0
    6.9192  -21.1637    9.7855 C   0  0  0  0  0  0  0  0  0  0  0  0
    6.2798  -20.1977    9.2901 O   0  0  0  0  0  0  0  0  0  0  0  0
    8.2839  -21.3807    9.4180 N   0  0  0  0  0  0  0  0  0  0  0  0
    8.9563  -21.7135   10.1479 H   0  0  0  0  0  0  0  0  0  0  0  0
    6.2009  -22.2088   10.5880 C   0  0  0  0  0  0  0  0  0  0  0  0
    7.0901  -22.9102   12.8709 C   0  0  0  0  0  0  0  0  0  0  0  0
    8.1555  -22.8576   13.5518 O   0  0  0  0  0  0  0  0  0  0  0  0
    7.1845  -22.8870   11.4363 N   0  0  0  0  0  0  0  0  0  0  0  0
    8.1285  -23.0706   11.0329 H   0  0  0  0  0  0  0  0  0  0  0  0
    5.7563  -23.0974   13.5626 C   0  0  0  0  0  0  0  0  0  0  0  0
    4.5980  -20.9824   14.3397 C   0  0  0  0  0  0  0  0  0  0  0  0
    4.3212  -20.6577   13.1519 O   0  0  0  0  0  0  0  0  0  0  0  0
    5.5030  -22.0715   14.5848 N   0  0  0  0  0  0  0  0  0  0  0  0
    5.9409  -22.1375   15.5289 H   0  0  0  0  0  0  0  0  0  0  0  0
    3.9735  -20.2547   15.5065 C   0  0  0  0  0  0  0  0  0  0  0  0
    5.0351  -19.4037   16.2022 C   0  0  0  0  0  0  0  0  0  0  0  0
    2.1540  -21.9186   16.1750 C   0  0  0  0  0  0  0  0  0  0  0  0
    1.5042  -21.6809   15.1209 O   0  0  0  0  0  0  0  0  0  0  0  0
    3.3506  -21.1779   16.4711 N   0  0  0  0  0  0  0  0  0  0  0  0
    3.7939  -21.3556   17.3973 H   0  0  0  0  0  0  0  0  0  0  0  0
    1.6646  -22.9852   17.1234 C   0  0  0  0  0  0  0  0  0  0  0  0
    3.1332  -23.6103   19.0953 C   0  0  0  0  0  0  0  0  0  0  0  0
    3.0135  -24.6427   19.8123 O   0  0  0  0  0  0  0  0  0  0  0  0
    2.8086  -23.6966   17.7029 N   0  0  0  0  0  0  0  0  0  0  0  0
    3.1116  -24.5685   17.2236 H   0  0  0  0  0  0  0  0  0  0  0  0
    3.7669  -22.3734   19.7102 C   0  0  0  0  0  0  0  0  0  0  0  0
    5.9967  -23.0965   18.8035 C   0  0  0  0  0  0  0  0  0  0  0  0
    5.8904  -22.6629   17.6231 O   0  0  0  0  0  0  0  0  0  0  0  0
    5.2198  -22.4984   19.8465 N   0  0  0  0  0  0  0  0  0  0  0  0
    5.7149  -22.1177   20.6810 H   0  0  0  0  0  0  0  0  0  0  0  0
    6.2292  -25.1459   20.1171 N   0  0  0  0  0  0  0  0  0  0  0  0
    6.8665  -24.3000   19.0990 C   0  0  0  0  0  0  0  0  0  0  0  0
    6.9070  -25.8941   20.3946 H   0  0  0  0  0  0  0  0  0  0  0  0
    6.0737  -24.5718   20.9762 H   0  0  0  0  0  0  0  0  0  0  0  0
    7.1871  -25.1025   17.8184 C   0  0  0  0  0  0  0  0  0  0  0  0
    8.5830  -25.1132   17.6275 O   0  0  0  0  0  0  0  0  0  0  0  0
    6.6726  -26.5475   17.8834 C   0  0  0  0  0  0  0  0  0  0  0  0
    8.7428  -25.4003   16.6924 H   0  0  0  0  0  0  0  0  0  0  0  0
    3.1169  -22.0175   21.0586 C   0  0  0  0  0  0  0  0  0  0  0  0
    1.8559  -21.1438   20.9342 C   0  0  0  0  0  0  0  0  0  0  0  0
    0.5874  -21.9518   21.0434 C   0  0  0  0  0  0  0  0  0  0  0  0
    0.5763  -23.0759   21.6098 O   0  0  0  0  0  0  0  0  0  0  0  0
   -0.6281  -21.4296   20.5104 N   0  0  0  0  0  0  0  0  0  0  0  0
   -1.5152  -21.9697   20.5959 H   0  0  0  0  0  0  0  0  0  0  0  0
   -0.6537  -20.4793   20.0723 H   0  0  0  0  0  0  0  0  0  0  0  0
    0.6269  -23.9816   16.5245 C   0  0  0  0  0  0  0  0  0  0  0  0
    0.1693  -25.1616   17.4071 C   0  0  0  0  0  0  0  0  0  0  0  0
   -0.4022  -24.8126   18.7623 C   0  0  0  0  0  0  0  0  0  0  0  0
   -1.2853  -23.9206   18.8245 O   0  0  0  0  0  0  0  0  0  0  0  0
    0.0477  -25.4173   19.9792 N   0  0  0  0  0  0  0  0  0  0  0  0
    0.8914  -26.0246   20.0281 H   0  0  0  0  0  0  0  0  0  0  0  0
   -0.4083  -25.1586   20.8861 H   0  0  0  0  0  0  0  0  0  0  0  0
    5.6990  -24.5088   14.1832 C   0  0  0  0  0  0  0  0  0  0  0  0
    4.8321  -24.5354   15.2896 O   0  0  0  0  0  0  0  0  0  0  0  0
    3.9221  -24.7206   14.9303 H   0  0  0  0  0  0  0  0  0  0  0  0
    5.4620  -23.2171    9.6891 C   0  0  0  0  0  0  0  0  0  0  0  0
    4.0533  -22.7617    9.4321 C   0  0  0  0  0  0  0  0  0  0  0  0
    2.9408  -23.0933   10.1834 C   0  0  0  0  0  0  0  0  0  0  0  0
    1.8460  -22.5514    9.6108 N   0  0  0  0  0  0  0  0  0  0  0  0
    2.3228  -21.9011    8.5239 C   0  0  0  0  0  0  0  0  0  0  0  0
    3.6618  -22.0050    8.3962 N   0  0  0  0  0  0  0  0  0  0  0  0
    4.2503  -21.6108    7.6308 H   0  0  0  0  0  0  0  0  0  0  0  0
 95 96  1  0  0  0
 96 91  1  0  0  0
 91 92  2  0  0  0
 91 93  1  0  0  0
 93 90  1  0  0  0
 90103  1  0  0  0
103104  1  0  0  0
104105  1  0  0  0
105106  2  0  0  0
105107  1  0  0  0
 90 86  1  0  0  0
 86 87  2  0  0  0
 86 88  1  0  0  0
 88 85  1  0  0  0
 85110  1  0  0  0
110111  1  0  0  0
111112  1  0  0  0
112113  2  0  0  0
112114  1  0  0  0
 85 81  1  0  0  0
 81 82  2  0  0  0
 81 83  1  0  0  0
 83 79  1  0  0  0
 79 80  1  0  0  0
 79 75  1  0  0  0
 75 76  2  0  0  0
 75 77  1  0  0  0
 77 74  1  0  0  0
 74117  1  0  0  0
117118  1  0  0  0
 74 70  1  0  0  0
 70 71  2  0  0  0
 70 72  1  0  0  0
 72 69  1  0  0  0
 69120  1  0  0  0
120121  1  0  0  0
121122  2  0  0  0
122123  1  0  0  0
123124  2  0  0  0
124125  1  0  0  0
 69 65  1  0  0  0
 65 66  2  0  0  0
 65 67  1  0  0  0
 67  1  1  0  0  0
  1  2  1  0  0  0
  2  3  2  0  0  0
  3  4  1  0  0  0
  4  5  2  0  0  0
  5  6  1  0  0  0
  5  7  1  0  0  0
  7  8  2  0  0  0
  1 10  1  0  0  0
 10 11  2  0  0  0
 10 12  1  0  0  0
 12 14  1  0  0  0
 14 58  1  0  0  0
 58 59  1  0  0  0
 59 60  1  0  0  0
 60 61  1  0  0  0
 61 62  1  0  0  0
 14 15  1  0  0  0
 15 16  2  0  0  0
 15 17  1  0  0  0
 17 19  1  0  0  0
 19 51  1  0  0  0
 51 52  1  0  0  0
 52 53  1  0  0  0
 53 54  2  0  0  0
 53 55  1  0  0  0
 19 20  1  0  0  0
 20 21  2  0  0  0
 20 22  1  0  0  0
 22 24  1  0  0  0
 24 44  1  0  0  0
 44 45  1  0  0  0
 45 46  2  0  0  0
 46 47  1  0  0  0
 47 48  2  0  0  0
 48 49  1  0  0  0
 24 25  1  0  0  0
 25 26  2  0  0  0
 25 27  1  0  0  0
 27 29  1  0  0  0
 29 41  1  0  0  0
 41 42  1  0  0  0
 29 30  1  0  0  0
 30 31  2  0  0  0
 30 32  1  0  0  0
 32 33  1  0  0  0
 33 34  1  0  0  0
 34 35  1  0  0  0
 35 36  1  0  0  0
 36 37  1  0  0  0
 37 38  1  0  0  0
 37 39  2  0  0  0
 96 99  1  0  0  0
 99100  1  0  0  0
 99101  1  0  0  0
125121  1  0  0  0
  8  2  1  0  0  0
 49 45  1  0  0  0
 36 32  1  0  0  0
 95 97  1  0  0  0
 95 98  1  0  0  0
 93 94  1  0  0  0
107108  1  0  0  0
107109  1  0  0  0
 88 89  1  0  0  0
114115  1  0  0  0
114116  1  0  0  0
 83 84  1  0  0  0
 77 78  1  0  0  0
118119  1  0  0  0
 72 73  1  0  0  0
125126  1  0  0  0
 67 68  1  0  0  0
  6  9  1  0  0  0
 12 13  1  0  0  0
 62 63  1  0  0  0
 62 64  1  0  0  0
 17 18  1  0  0  0
 55 56  1  0  0  0
 55 57  1  0  0  0
 22 23  1  0  0  0
 49 50  1  0  0  0
 27 28  1  0  0  0
 42 43  1  0  0  0
 38 40  1  0  0  0
100102  1  0  0  0
M  END
> <minimizedAffinity>
-6.19140

$$$$



126129  0  0  0  0  0  0  0  0999 V2000
    8.1090  -23.5691   11.6613 C   0  0  0  0  0  0  0  0  0  0  0  0
    9.3209  -24.4565   11.8265 C   0  0  0  0  0  0  0  0  0  0  0  0
    9.1917  -25.7798   12.2853 C   0  0  0  0  0  0  0  0  0  0  0  0
   10.3139  -26.6054   12.3867 C   0  0  0  0  0  0  0  0  0  0  0  0
   11.5825  -26.1160   12.0511 C   0  0  0  0  0  0  0  0  0  0  0  0
   12.6962  -26.9489   12.1530 O   0  0  0  0  0  0  0  0  0  0  0  0
   11.7223  -24.7950   11.6091 C   0  0  0  0  0  0  0  0  0  0  0  0
   10.5957  -23.9746   11.4891 C   0  0  0  0  0  0  0  0  0  0  0  0
   13.6291  -26.6041   11.9586 H   0  0  0  0  0  0  0  0  0  0  0  0
    7.5371  -23.1926   13.0031 C   0  0  0  0  0  0  0  0  0  0  0  0
    8.2976  -22.8964   13.9619 O   0  0  0  0  0  0  0  0  0  0  0  0
    6.1172  -23.2131   13.2037 N   0  0  0  0  0  0  0  0  0  0  0  0
    5.5279  -22.8154   12.4362 H   0  0  0  0  0  0  0  0  0  0  0  0
    5.4287  -24.0658   14.1866 C   0  0  0  0  0  0  0  0  0  0  0  0
    5.2114  -23.2783   15.4571 C   0  0  0  0  0  0  0  0  0  0  0  0
    5.3769  -22.0248   15.4710 O   0  0  0  0  0  0  0  0  0  0  0  0
    4.8271  -23.9648   16.6564 N   0  0  0  0  0  0  0  0  0  0  0  0
    4.4929  -24.9520   16.5707 H   0  0  0  0  0  0  0  0  0  0  0  0
    5.2399  -23.4915   17.9825 C   0  0  0  0  0  0  0  0  0  0  0  0
    4.0635  -22.8645   18.6912 C   0  0  0  0  0  0  0  0  0  0  0  0
    3.9117  -23.0544   19.9270 O   0  0  0  0  0  0  0  0  0  0  0  0
    3.1588  -22.0022   17.9770 N   0  0  0  0  0  0  0  0  0  0  0  0
    3.3711  -21.8156   16.9681 H   0  0  0  0  0  0  0  0  0  0  0  0
    2.1590  -21.1749   18.6729 C   0  0  0  0  0  0  0  0  0  0  0  0
    0.8243  -21.1781   17.9553 C   0  0  0  0  0  0  0  0  0  0  0  0
    0.5365  -20.2251   17.1810 O   0  0  0  0  0  0  0  0  0  0  0  0
   -0.1899  -22.1621   18.2354 N   0  0  0  0  0  0  0  0  0  0  0  0
   -1.1749  -21.8072   18.2723 H   0  0  0  0  0  0  0  0  0  0  0  0
   -0.0288  -23.6247   18.1412 C   0  0  0  0  0  0  0  0  0  0  0  0
    0.6368  -24.0291   16.8450 C   0  0  0  0  0  0  0  0  0  0  0  0
    1.8407  -24.3869   16.8425 O   0  0  0  0  0  0  0  0  0  0  0  0
   -0.0403  -23.8908   15.5883 N   0  0  0  0  0  0  0  0  0  0  0  0
   -0.7808  -24.9763   14.9693 C   0  0  0  0  0  0  0  0  0  0  0  0
   -0.9418  -24.5823   13.5084 C   0  0  0  0  0  0  0  0  0  0  0  0
   -0.6867  -23.0774   13.4592 C   0  0  0  0  0  0  0  0  0  0  0  0
    0.1673  -22.7633   14.6888 C   0  0  0  0  0  0  0  0  0  0  0  0
    1.6192  -22.6250   14.3209 C   0  0  0  0  0  0  0  0  0  0  0  0
    2.4031  -21.6772   14.9630 O   0  0  0  0  0  0  0  0  0  0  0  0
    2.1151  -23.3436   13.4120 O   0  0  0  0  0  0  0  0  0  0  0  0
    3.3789  -21.5579   14.7196 H   0  0  0  0  0  0  0  0  0  0  0  0
    0.6850  -24.1882   19.3868 C   0  0  0  0  0  0  0  0  0  0  0  0
    0.1851  -23.3227   20.9138 S   0  0  0  0  0  0  0  0  0  0  0  0
   -1.1820  -23.6097   20.7863 H   0  0  0  0  0  0  0  0  0  0  0  0
    2.6948  -19.7360   18.8357 C   0  0  0  0  0  0  0  0  0  0  0  0
    3.7739  -19.4027   17.8378 C   0  0  0  0  0  0  0  0  0  0  0  0
    5.1223  -19.2999   18.0926 C   0  0  0  0  0  0  0  0  0  0  0  0
    5.7614  -18.9503   16.9596 N   0  0  0  0  0  0  0  0  0  0  0  0
    4.7776  -18.8373   16.0416 C   0  0  0  0  0  0  0  0  0  0  0  0
    3.5588  -19.1062   16.5438 N   0  0  0  0  0  0  0  0  0  0  0  0
    2.6428  -19.0480   16.0458 H   0  0  0  0  0  0  0  0  0  0  0  0
    5.7897  -24.6676   18.8173 C   0  0  0  0  0  0  0  0  0  0  0  0
    7.3222  -24.6306   18.9452 C   0  0  0  0  0  0  0  0  0  0  0  0
    7.9855  -25.0772   17.6717 C   0  0  0  0  0  0  0  0  0  0  0  0
    8.0202  -26.3022   17.3786 O   0  0  0  0  0  0  0  0  0  0  0  0
    8.5862  -24.1223   16.7946 N   0  0  0  0  0  0  0  0  0  0  0  0
    9.0076  -24.4292   15.8896 H   0  0  0  0  0  0  0  0  0  0  0  0
    8.6255  -23.1098   17.0441 H   0  0  0  0  0  0  0  0  0  0  0  0
    6.1470  -25.4158   14.4395 C   0  0  0  0  0  0  0  0  0  0  0  0
    5.3411  -26.6185   13.9193 C   0  0  0  0  0  0  0  0  0  0  0  0
    4.2956  -27.1238   14.9299 C   0  0  0  0  0  0  0  0  0  0  0  0
    2.8314  -26.7934   14.5715 C   0  0  0  0  0  0  0  0  0  0  0  0
    1.8833  -27.2683   15.5823 N   0  0  0  0  0  0  0  0  0  0  0  0
    1.9855  -26.6816   16.4445 H   0  0  0  0  0  0  0  0  0  0  0  0
    2.1151  -28.2511   15.8343 H   0  0  0  0  0  0  0  0  0  0  0  0
    8.0276  -22.2600    9.5196 C   0  0  0  0  0  0  0  0  0  0  0  0
    8.2133  -23.2149    8.7189 O   0  0  0  0  0  0  0  0  0  0  0  0
    8.4507  -22.3760   10.8805 N   0  0  0  0  0  0  0  0  0  0  0  0
    8.8484  -21.5343   11.3589 H   0  0  0  0  0  0  0  0  0  0  0  0
    7.1775  -21.0920    9.1132 C   0  0  0  0  0  0  0  0  0  0  0  0
    8.8745  -19.2330    8.7149 C   0  0  0  0  0  0  0  0  0  0  0  0
    9.8559  -18.6796    9.2910 O   0  0  0  0  0  0  0  0  0  0  0  0
    7.8654  -19.8643    9.5215 N   0  0  0  0  0  0  0  0  0  0  0  0
    7.8697  -19.6254   10.5366 H   0  0  0  0  0  0  0  0  0  0  0  0
    8.7244  -19.1361    7.2114 C   0  0  0  0  0  0  0  0  0  0  0  0
    9.4501  -20.4019    5.1401 C   0  0  0  0  0  0  0  0  0  0  0  0
    8.2720  -20.4029    4.6873 O   0  0  0  0  0  0  0  0  0  0  0  0
    9.6895  -19.9813    6.4933 N   0  0  0  0  0  0  0  0  0  0  0  0
   10.5925  -20.2568    6.9361 H   0  0  0  0  0  0  0  0  0  0  0  0
   10.6137  -20.8164    4.2710 C   0  0  0  0  0  0  0  0  0  0  0  0
   10.7377  -19.8510    3.0929 C   0  0  0  0  0  0  0  0  0  0  0  0
   10.6406  -23.3444    4.6376 C   0  0  0  0  0  0  0  0  0  0  0  0
   11.0594  -23.2013    5.8182 O   0  0  0  0  0  0  0  0  0  0  0  0
   10.4799  -22.1997    3.7820 N   0  0  0  0  0  0  0  0  0  0  0  0
   10.2169  -22.3890    2.7916 H   0  0  0  0  0  0  0  0  0  0  0  0
   10.3111  -24.7266    4.1300 C   0  0  0  0  0  0  0  0  0  0  0  0
   10.0176  -26.6400    5.7697 C   0  0  0  0  0  0  0  0  0  0  0  0
   10.0680  -27.8706    5.4913 O   0  0  0  0  0  0  0  0  0  0  0  0
   10.8576  -25.7343    5.0446 N   0  0  0  0  0  0  0  0  0  0  0  0
   11.8212  -26.0733    4.8488 H   0  0  0  0  0  0  0  0  0  0  0  0
    9.1885  -26.2036    6.9662 C   0  0  0  0  0  0  0  0  0  0  0  0
   11.1839  -26.6014    8.4417 C   0  0  0  0  0  0  0  0  0  0  0  0
   11.8099  -25.5248    8.2375 O   0  0  0  0  0  0  0  0  0  0  0  0
    9.7676  -26.6425    8.2378 N   0  0  0  0  0  0  0  0  0  0  0  0
    9.1593  -26.9497    9.0265 H   0  0  0  0  0  0  0  0  0  0  0  0
   11.3683  -29.0145    8.0919 N   0  0  0  0  0  0  0  0  0  0  0  0
   11.9357  -27.8637    8.8074 C   0  0  0  0  0  0  0  0  0  0  0  0
   11.8180  -29.8854    8.4603 H   0  0  0  0  0  0  0  0  0  0  0  0
   10.3558  -29.0927    8.3382 H   0  0  0  0  0  0  0  0  0  0  0  0
   13.4511  -27.7247    8.5412 C   0  0  0  0  0  0  0  0  0  0  0  0
   14.0356  -27.0138    9.6079 O   0  0  0  0  0  0  0  0  0  0  0  0
   14.1510  -29.0830    8.3925 C   0  0  0  0  0  0  0  0  0  0  0  0
   14.9306  -26.7190    9.3005 H   0  0  0  0  0  0  0  0  0  0  0  0
    7.7268  -26.6668    6.8389 C   0  0  0  0  0  0  0  0  0  0  0  0
    6.9772  -26.0515    5.6437 C   0  0  0  0  0  0  0  0  0  0  0  0
    6.7185  -24.5775    5.8285 C   0  0  0  0  0  0  0  0  0  0  0  0
    7.1476  -23.7308    5.0018 O   0  0  0  0  0  0  0  0  0  0  0  0
    5.9604  -24.1310    6.9512 N   0  0  0  0  0  0  0  0  0  0  0  0
    5.7587  -23.1168    7.0803 H   0  0  0  0  0  0  0  0  0  0  0  0
    5.5570  -24.8182    7.6298 H   0  0  0  0  0  0  0  0  0  0  0  0
   10.7360  -25.0127    2.6583 C   0  0  0  0  0  0  0  0  0  0  0  0
   10.1918  -26.2913    1.9875 C   0  0  0  0  0  0  0  0  0  0  0  0
    8.7230  -26.5882    2.1859 C   0  0  0  0  0  0  0  0  0  0  0  0
    8.3986  -27.7170    2.6326 O   0  0  0  0  0  0  0  0  0  0  0  0
    7.6859  -25.6619    1.8460 N   0  0  0  0  0  0  0  0  0  0  0  0
    7.8643  -24.7888    1.3086 H   0  0  0  0  0  0  0  0  0  0  0  0
    6.6862  -25.9106    2.0359 H   0  0  0  0  0  0  0  0  0  0  0  0
    8.8670  -17.6616    6.7801 C   0  0  0  0  0  0  0  0  0  0  0  0
    7.6853  -16.9462    7.0407 O   0  0  0  0  0  0  0  0  0  0  0  0
    7.7556  -16.6174    7.9780 H   0  0  0  0  0  0  0  0  0  0  0  0
    5.7686  -21.1638    9.7302 C   0  0  0  0  0  0  0  0  0  0  0  0
    4.7226  -21.2177    8.6528 C   0  0  0  0  0  0  0  0  0  0  0  0
    3.5494  -21.9485    8.6932 C   0  0  0  0  0  0  0  0  0  0  0  0
    2.8972  -21.7984    7.5217 N   0  0  0  0  0  0  0  0  0  0  0  0
    3.6924  -20.9765    6.7980 C   0  0  0  0  0  0  0  0  0  0  0  0
    4.8037  -20.6013    7.4644 N   0  0  0  0  0  0  0  0  0  0  0  0
    5.5728  -19.9940    7.1076 H   0  0  0  0  0  0  0  0  0  0  0  0
 95 96  1  0  0  0
 96 91  1  0  0  0
 91 92  2  0  0  0
 91 93  1  0  0  0
 93 90  1  0  0  0
 90103  1  0  0  0
103104  1  0  0  0
104105  1  0  0  0
105106  2  0  0  0
105107  1  0  0  0
 90 86  1  0  0  0
 86 87  2  0  0  0
 86 88  1  0  0  0
 88 85  1  0  0  0
 85110  1  0  0  0
110111  1  0  0  0
111112  1  0  0  0
112113  2  0  0  0
112114  1  0  0  0
 85 81  1  0  0  0
 81 82  2  0  0  0
 81 83  1  0  0  0
 83 79  1  0  0  0
 79 80  1  0  0  0
 79 75  1  0  0  0
 75 76  2  0  0  0
 75 77  1  0  0  0
 77 74  1  0  0  0
 74117  1  0  0  0
117118  1  0  0  0
 74 70  1  0  0  0
 70 71  2  0  0  0
 70 72  1  0  0  0
 72 69  1  0  0  0
 69120  1  0  0  0
120121  1  0  0  0
121122  2  0  0  0
122123  1  0  0  0
123124  2  0  0  0
124125  1  0  0  0
 69 65  1  0  0  0
 65 66  2  0  0  0
 65 67  1  0  0  0
 67  1  1  0  0  0
  1  2  1  0  0  0
  2  3  2  0  0  0
  3  4  1  0  0  0
  4  5  2  0  0  0
  5  6  1  0  0  0
  5  7  1  0  0  0
  7  8  2  0  0  0
  1 10  1  0  0  0
 10 11  2  0  0  0
 10 12  1  0  0  0
 12 14  1  0  0  0
 14 58  1  0  0  0
 58 59  1  0  0  0
 59 60  1  0  0  0
 60 61  1  0  0  0
 61 62  1  0  0  0
 14 15  1  0  0  0
 15 16  2  0  0  0
 15 17  1  0  0  0
 17 19  1  0  0  0
 19 51  1  0  0  0
 51 52  1  0  0  0
 52 53  1  0  0  0
 53 54  2  0  0  0
 53 55  1  0  0  0
 19 20  1  0  0  0
 20 21  2  0  0  0
 20 22  1  0  0  0
 22 24  1  0  0  0
 24 44  1  0  0  0
 44 45  1  0  0  0
 45 46  2  0  0  0
 46 47  1  0  0  0
 47 48  2  0  0  0
 48 49  1  0  0  0
 24 25  1  0  0  0
 25 26  2  0  0  0
 25 27  1  0  0  0
 27 29  1  0  0  0
 29 41  1  0  0  0
 41 42  1  0  0  0
 29 30  1  0  0  0
 30 31  2  0  0  0
 30 32  1  0  0  0
 32 33  1  0  0  0
 33 34  1  0  0  0
 34 35  1  0  0  0
 35 36  1  0  0  0
 36 37  1  0  0  0
 37 38  1  0  0  0
 37 39  2  0  0  0
 96 99  1  0  0  0
 99100  1  0  0  0
 99101  1  0  0  0
125121  1  0  0  0
  8  2  1  0  0  0
 49 45  1  0  0  0
 36 32  1  0  0  0
 95 97  1  0  0  0
 95 98  1  0  0  0
 93 94  1  0  0  0
107108  1  0  0  0
107109  1  0  0  0
 88 89  1  0  0  0
114115  1  0  0  0
114116  1  0  0  0
 83 84  1  0  0  0
 77 78  1  0  0  0
118119  1  0  0  0
 72 73  1  0  0  0
125126  1  0  0  0
 67 68  1  0  0  0
  6  9  1  0  0  0
 12 13  1  0  0  0
 62 63  1  0  0  0
 62 64  1  0  0  0
 17 18  1  0  0  0
 55 56  1  0  0  0
 55 57  1  0  0  0
 22 23  1  0  0  0
 49 50  1  0  0  0
 27 28  1  0  0  0
 42 43  1  0  0  0
 38 40  1  0  0  0
100102  1  0  0  0
M  END
> <minimizedAffinity>
-6.12336

$$$$



126129  0  0  0  0  0  0  0  0999 V2000
    8.8985  -20.4667    7.7958 C   0  0  0  0  0  0  0  0  0  0  0  0
   10.0277  -19.5106    7.4890 C   0  0  0  0  0  0  0  0  0  0  0  0
    9.9955  -18.1815    7.9483 C   0  0  0  0  0  0  0  0  0  0  0  0
   11.0682  -17.3218    7.7001 C   0  0  0  0  0  0  0  0  0  0  0  0
   12.1782  -17.7702    6.9731 C   0  0  0  0  0  0  0  0  0  0  0  0
   13.2451  -16.9052    6.7330 O   0  0  0  0  0  0  0  0  0  0  0  0
   12.2111  -19.0867    6.4982 C   0  0  0  0  0  0  0  0  0  0  0  0
   11.1454  -19.9531    6.7637 C   0  0  0  0  0  0  0  0  0  0  0  0
   14.0383  -17.1932    6.1719 H   0  0  0  0  0  0  0  0  0  0  0  0
    9.2974  -21.8834    7.4748 C   0  0  0  0  0  0  0  0  0  0  0  0
   10.0760  -22.5164    8.2355 O   0  0  0  0  0  0  0  0  0  0  0  0
    8.8221  -22.5024    6.2716 N   0  0  0  0  0  0  0  0  0  0  0  0
    7.8166  -22.3471    6.0283 H   0  0  0  0  0  0  0  0  0  0  0  0
    9.6916  -22.9949    5.1905 C   0  0  0  0  0  0  0  0  0  0  0  0
    9.1913  -22.4571    3.8707 C   0  0  0  0  0  0  0  0  0  0  0  0
    8.5909  -23.2146    3.0556 O   0  0  0  0  0  0  0  0  0  0  0  0
    9.4132  -21.0792    3.5400 N   0  0  0  0  0  0  0  0  0  0  0  0
    9.7144  -20.4335    4.3055 H   0  0  0  0  0  0  0  0  0  0  0  0
    9.6090  -20.6402    2.1536 C   0  0  0  0  0  0  0  0  0  0  0  0
    8.9916  -19.2766    1.9565 C   0  0  0  0  0  0  0  0  0  0  0  0
    9.4056  -18.5381    1.0240 O   0  0  0  0  0  0  0  0  0  0  0  0
    7.8940  -18.8481    2.7835 N   0  0  0  0  0  0  0  0  0  0  0  0
    7.5369  -19.5287    3.4956 H   0  0  0  0  0  0  0  0  0  0  0  0
    7.1024  -17.6478    2.4662 C   0  0  0  0  0  0  0  0  0  0  0  0
    6.1867  -17.2564    3.6085 C   0  0  0  0  0  0  0  0  0  0  0  0
    5.9626  -16.0353    3.8304 O   0  0  0  0  0  0  0  0  0  0  0  0
    5.6736  -18.2267    4.5414 N   0  0  0  0  0  0  0  0  0  0  0  0
    5.6479  -17.9281    5.5453 H   0  0  0  0  0  0  0  0  0  0  0  0
    4.8901  -19.4282    4.2002 C   0  0  0  0  0  0  0  0  0  0  0  0
    3.6667  -19.0811    3.3819 C   0  0  0  0  0  0  0  0  0  0  0  0
    3.6660  -19.2742    2.1409 O   0  0  0  0  0  0  0  0  0  0  0  0
    2.5440  -18.4122    3.9726 N   0  0  0  0  0  0  0  0  0  0  0  0
    1.3863  -19.1222    4.4878 C   0  0  0  0  0  0  0  0  0  0  0  0
    0.2808  -18.0820    4.5934 C   0  0  0  0  0  0  0  0  0  0  0  0
    0.9877  -16.7285    4.5689 C   0  0  0  0  0  0  0  0  0  0  0  0
    2.3265  -16.9749    3.8712 C   0  0  0  0  0  0  0  0  0  0  0  0
    2.2787  -16.5352    2.4335 C   0  0  0  0  0  0  0  0  0  0  0  0
    1.3729  -17.1261    1.5643 O   0  0  0  0  0  0  0  0  0  0  0  0
    3.0783  -15.6573    2.0111 O   0  0  0  0  0  0  0  0  0  0  0  0
    1.3349  -16.8551    0.5893 H   0  0  0  0  0  0  0  0  0  0  0  0
    5.7761  -20.5009    3.5345 C   0  0  0  0  0  0  0  0  0  0  0  0
    5.1492  -22.1888    3.8314 S   0  0  0  0  0  0  0  0  0  0  0  0
    3.8899  -21.9648    3.2558 H   0  0  0  0  0  0  0  0  0  0  0  0
    6.2981  -17.8813    1.1690 C   0  0  0  0  0  0  0  0  0  0  0  0
    6.0849  -16.6134    0.3828 C   0  0  0  0  0  0  0  0  0  0  0  0
    7.0117  -15.6202    0.1623 C   0  0  0  0  0  0  0  0  0  0  0  0
    6.4395  -14.6317   -0.5519 N   0  0  0  0  0  0  0  0  0  0  0  0
    5.1681  -15.0464   -0.7387 C   0  0  0  0  0  0  0  0  0  0  0  0
    4.9214  -16.2468   -0.1833 N   0  0  0  0  0  0  0  0  0  0  0  0
    4.0103  -16.7562   -0.1575 H   0  0  0  0  0  0  0  0  0  0  0  0
   11.1156  -20.5873    1.8225 C   0  0  0  0  0  0  0  0  0  0  0  0
   11.9191  -19.7965    2.8690 C   0  0  0  0  0  0  0  0  0  0  0  0
   13.0450  -19.0333    2.2278 C   0  0  0  0  0  0  0  0  0  0  0  0
   13.1414  -18.9943    0.9721 O   0  0  0  0  0  0  0  0  0  0  0  0
   14.0135  -18.3586    3.0332 N   0  0  0  0  0  0  0  0  0  0  0  0
   14.7692  -17.7927    2.5865 H   0  0  0  0  0  0  0  0  0  0  0  0
   13.9919  -18.4268    4.0743 H   0  0  0  0  0  0  0  0  0  0  0  0
    9.8494  -24.5368    5.1828 C   0  0  0  0  0  0  0  0  0  0  0  0
    8.8405  -25.2370    6.1093 C   0  0  0  0  0  0  0  0  0  0  0  0
    7.6573  -25.8609    5.3475 C   0  0  0  0  0  0  0  0  0  0  0  0
    6.2627  -25.4844    5.8903 C   0  0  0  0  0  0  0  0  0  0  0  0
    5.1875  -25.7972    4.9457 N   0  0  0  0  0  0  0  0  0  0  0  0
    5.0757  -26.8377    4.8924 H   0  0  0  0  0  0  0  0  0  0  0  0
    5.4525  -25.4546    3.9994 H   0  0  0  0  0  0  0  0  0  0  0  0
    7.1206  -20.5410    9.5681 C   0  0  0  0  0  0  0  0  0  0  0  0
    6.2024  -19.9660    8.9248 O   0  0  0  0  0  0  0  0  0  0  0  0
    8.4868  -20.3398    9.1973 N   0  0  0  0  0  0  0  0  0  0  0  0
    9.2103  -20.2769    9.9511 H   0  0  0  0  0  0  0  0  0  0  0  0
    6.7831  -21.5984   10.5781 C   0  0  0  0  0  0  0  0  0  0  0  0
    8.3583  -23.0061   12.0032 C   0  0  0  0  0  0  0  0  0  0  0  0
    9.5946  -23.1307   12.2431 O   0  0  0  0  0  0  0  0  0  0  0  0
    7.9511  -22.4694   10.7330 N   0  0  0  0  0  0  0  0  0  0  0  0
    8.6820  -22.4374    9.9898 H   0  0  0  0  0  0  0  0  0  0  0  0
    7.3374  -23.5111   13.0008 C   0  0  0  0  0  0  0  0  0  0  0  0
    7.0628  -22.9721   15.4611 C   0  0  0  0  0  0  0  0  0  0  0  0
    6.1301  -22.1588   15.2131 O   0  0  0  0  0  0  0  0  0  0  0  0
    7.8463  -23.5039   14.3801 N   0  0  0  0  0  0  0  0  0  0  0  0
    8.7707  -23.9275   14.6114 H   0  0  0  0  0  0  0  0  0  0  0  0
    7.3518  -23.4098   16.8775 C   0  0  0  0  0  0  0  0  0  0  0  0
    8.5751  -24.3256   16.8870 C   0  0  0  0  0  0  0  0  0  0  0  0
    5.2302  -23.4012   18.3004 C   0  0  0  0  0  0  0  0  0  0  0  0
    5.4198  -22.2000   18.6336 O   0  0  0  0  0  0  0  0  0  0  0  0
    6.2019  -24.0921   17.4963 N   0  0  0  0  0  0  0  0  0  0  0  0
    6.0343  -25.1068   17.3285 H   0  0  0  0  0  0  0  0  0  0  0  0
    3.9765  -24.1077   18.7540 C   0  0  0  0  0  0  0  0  0  0  0  0
    3.0952  -23.7681   16.3995 C   0  0  0  0  0  0  0  0  0  0  0  0
    3.6376  -24.1820   15.3369 O   0  0  0  0  0  0  0  0  0  0  0  0
    3.2124  -24.5604   17.5870 N   0  0  0  0  0  0  0  0  0  0  0  0
    3.1244  -25.5880   17.4527 H   0  0  0  0  0  0  0  0  0  0  0  0
    2.2121  -22.5335   16.3262 C   0  0  0  0  0  0  0  0  0  0  0  0
    2.3771  -20.2097   17.2694 C   0  0  0  0  0  0  0  0  0  0  0  0
    1.3719  -19.6885   16.7122 O   0  0  0  0  0  0  0  0  0  0  0  0
    2.4219  -21.6280   17.4581 N   0  0  0  0  0  0  0  0  0  0  0  0
    2.5636  -21.9983   18.4220 H   0  0  0  0  0  0  0  0  0  0  0  0
    4.0801  -19.7602   18.9657 N   0  0  0  0  0  0  0  0  0  0  0  0
    3.5674  -19.3548   17.6500 C   0  0  0  0  0  0  0  0  0  0  0  0
    4.8134  -19.0728   19.2593 H   0  0  0  0  0  0  0  0  0  0  0  0
    3.3095  -19.6682   19.6654 H   0  0  0  0  0  0  0  0  0  0  0  0
    4.6744  -19.4033   16.5735 C   0  0  0  0  0  0  0  0  0  0  0  0
    4.0947  -19.7715   15.3433 O   0  0  0  0  0  0  0  0  0  0  0  0
    5.3989  -18.0595   16.4112 C   0  0  0  0  0  0  0  0  0  0  0  0
    4.8374  -20.0420   14.7452 H   0  0  0  0  0  0  0  0  0  0  0  0
    0.7264  -22.9097   16.1912 C   0  0  0  0  0  0  0  0  0  0  0  0
    0.0591  -22.3746   14.9116 C   0  0  0  0  0  0  0  0  0  0  0  0
   -1.4413  -22.5226   14.9445 C   0  0  0  0  0  0  0  0  0  0  0  0
   -1.9836  -23.6548   15.0362 O   0  0  0  0  0  0  0  0  0  0  0  0
   -2.2649  -21.3596   14.8868 N   0  0  0  0  0  0  0  0  0  0  0  0
   -3.3025  -21.4469   14.9275 H   0  0  0  0  0  0  0  0  0  0  0  0
   -1.8379  -20.4046   14.8527 H   0  0  0  0  0  0  0  0  0  0  0  0
    3.0770  -23.2995   19.7369 C   0  0  0  0  0  0  0  0  0  0  0  0
    1.9457  -24.0555   20.4646 C   0  0  0  0  0  0  0  0  0  0  0  0
    2.1091  -25.5520   20.6010 C   0  0  0  0  0  0  0  0  0  0  0  0
    1.4929  -26.2943   19.7957 O   0  0  0  0  0  0  0  0  0  0  0  0
    2.8948  -26.1615   21.6308 N   0  0  0  0  0  0  0  0  0  0  0  0
    3.2828  -25.6262   22.4346 H   0  0  0  0  0  0  0  0  0  0  0  0
    2.9974  -27.2036   21.6562 H   0  0  0  0  0  0  0  0  0  0  0  0
    6.8882  -24.9301   12.5947 C   0  0  0  0  0  0  0  0  0  0  0  0
    7.6469  -25.9069   13.2630 O   0  0  0  0  0  0  0  0  0  0  0  0
    7.1889  -26.0743   14.1312 H   0  0  0  0  0  0  0  0  0  0  0  0
    5.5418  -22.4114   10.1667 C   0  0  0  0  0  0  0  0  0  0  0  0
    4.3954  -22.1316   11.0968 C   0  0  0  0  0  0  0  0  0  0  0  0
    4.4443  -21.3510   12.2371 C   0  0  0  0  0  0  0  0  0  0  0  0
    3.2408  -21.3859   12.8459 N   0  0  0  0  0  0  0  0  0  0  0  0
    2.4887  -22.1877   12.0566 C   0  0  0  0  0  0  0  0  0  0  0  0
    3.1626  -22.6474   10.9822 N   0  0  0  0  0  0  0  0  0  0  0  0
    2.8038  -23.2956   10.2483 H   0  0  0  0  0  0  0  0  0  0  0  0
 95 96  1  0  0  0
 96 91  1  0  0  0
 91 92  2  0  0  0
 91 93  1  0  0  0
 93 90  1  0  0  0
 90103  1  0  0  0
103104  1  0  0  0
104105  1  0  0  0
105106  2  0  0  0
105107  1  0  0  0
 90 86  1  0  0  0
 86 87  2  0  0  0
 86 88  1  0  0  0
 88 85  1  0  0  0
 85110  1  0  0  0
110111  1  0  0  0
111112  1  0  0  0
112113  2  0  0  0
112114  1  0  0  0
 85 81  1  0  0  0
 81 82  2  0  0  0
 81 83  1  0  0  0
 83 79  1  0  0  0
 79 80  1  0  0  0
 79 75  1  0  0  0
 75 76  2  0  0  0
 75 77  1  0  0  0
 77 74  1  0  0  0
 74117  1  0  0  0
117118  1  0  0  0
 74 70  1  0  0  0
 70 71  2  0  0  0
 70 72  1  0  0  0
 72 69  1  0  0  0
 69120  1  0  0  0
120121  1  0  0  0
121122  2  0  0  0
122123  1  0  0  0
123124  2  0  0  0
124125  1  0  0  0
 69 65  1  0  0  0
 65 66  2  0  0  0
 65 67  1  0  0  0
 67  1  1  0  0  0
  1  2  1  0  0  0
  2  3  2  0  0  0
  3  4  1  0  0  0
  4  5  2  0  0  0
  5  6  1  0  0  0
  5  7  1  0  0  0
  7  8  2  0  0  0
  1 10  1  0  0  0
 10 11  2  0  0  0
 10 12  1  0  0  0
 12 14  1  0  0  0
 14 58  1  0  0  0
 58 59  1  0  0  0
 59 60  1  0  0  0
 60 61  1  0  0  0
 61 62  1  0  0  0
 14 15  1  0  0  0
 15 16  2  0  0  0
 15 17  1  0  0  0
 17 19  1  0  0  0
 19 51  1  0  0  0
 51 52  1  0  0  0
 52 53  1  0  0  0
 53 54  2  0  0  0
 53 55  1  0  0  0
 19 20  1  0  0  0
 20 21  2  0  0  0
 20 22  1  0  0  0
 22 24  1  0  0  0
 24 44  1  0  0  0
 44 45  1  0  0  0
 45 46  2  0  0  0
 46 47  1  0  0  0
 47 48  2  0  0  0
 48 49  1  0  0  0
 24 25  1  0  0  0
 25 26  2  0  0  0
 25 27  1  0  0  0
 27 29  1  0  0  0
 29 41  1  0  0  0
 41 42  1  0  0  0
 29 30  1  0  0  0
 30 31  2  0  0  0
 30 32  1  0  0  0
 32 33  1  0  0  0
 33 34  1  0  0  0
 34 35  1  0  0  0
 35 36  1  0  0  0
 36 37  1  0  0  0
 37 38  1  0  0  0
 37 39  2  0  0  0
 96 99  1  0  0  0
 99100  1  0  0  0
 99101  1  0  0  0
125121  1  0  0  0
  8  2  1  0  0  0
 49 45  1  0  0  0
 36 32  1  0  0  0
 95 97  1  0  0  0
 95 98  1  0  0  0
 93 94  1  0  0  0
107108  1  0  0  0
107109  1  0  0  0
 88 89  1  0  0  0
114115  1  0  0  0
114116  1  0  0  0
 83 84  1  0  0  0
 77 78  1  0  0  0
118119  1  0  0  0
 72 73  1  0  0  0
125126  1  0  0  0
 67 68  1  0  0  0
  6  9  1  0  0  0
 12 13  1  0  0  0
 62 63  1  0  0  0
 62 64  1  0  0  0
 17 18  1  0  0  0
 55 56  1  0  0  0
 55 57  1  0  0  0
 22 23  1  0  0  0
 49 50  1  0  0  0
 27 28  1  0  0  0
 42 43  1  0  0  0
 38 40  1  0  0  0
100102  1  0  0  0
M  END
> <minimizedAffinity>
-6.10589

$$$$



126129  0  0  0  0  0  0  0  0999 V2000
   10.6316  -10.0439   31.4200 C   0  0  0  0  0  0  0  0  0  0  0  0
    9.4713  -10.4472   32.3001 C   0  0  0  0  0  0  0  0  0  0  0  0
    8.4304   -9.5448   32.5837 C   0  0  0  0  0  0  0  0  0  0  0  0
    7.3390   -9.9455   33.3581 C   0  0  0  0  0  0  0  0  0  0  0  0
    7.2811  -11.2452   33.8766 C   0  0  0  0  0  0  0  0  0  0  0  0
    6.1861  -11.6365   34.6462 O   0  0  0  0  0  0  0  0  0  0  0  0
    8.3208  -12.1448   33.6127 C   0  0  0  0  0  0  0  0  0  0  0  0
    9.4041  -11.7492   32.8211 C   0  0  0  0  0  0  0  0  0  0  0  0
    6.1434  -12.5566   35.0686 H   0  0  0  0  0  0  0  0  0  0  0  0
   11.5666   -9.1229   32.1594 C   0  0  0  0  0  0  0  0  0  0  0  0
   11.7791   -9.2811   33.3904 O   0  0  0  0  0  0  0  0  0  0  0  0
   12.1866   -8.0308   31.4669 N   0  0  0  0  0  0  0  0  0  0  0  0
   12.5599   -8.2314   30.5104 H   0  0  0  0  0  0  0  0  0  0  0  0
   12.0018   -6.6126   31.8162 C   0  0  0  0  0  0  0  0  0  0  0  0
   10.5358   -6.2649   31.7102 C   0  0  0  0  0  0  0  0  0  0  0  0
    9.8466   -6.6818   30.7355 O   0  0  0  0  0  0  0  0  0  0  0  0
    9.9298   -5.4449   32.7190 N   0  0  0  0  0  0  0  0  0  0  0  0
   10.4560   -5.2944   33.6101 H   0  0  0  0  0  0  0  0  0  0  0  0
    8.8275   -4.5275   32.4084 C   0  0  0  0  0  0  0  0  0  0  0  0
    8.8190   -3.3850   33.3953 C   0  0  0  0  0  0  0  0  0  0  0  0
    9.8986   -3.0235   33.9338 O   0  0  0  0  0  0  0  0  0  0  0  0
    7.6003   -2.6698   33.6702 N   0  0  0  0  0  0  0  0  0  0  0  0
    6.7445   -2.9606   33.1403 H   0  0  0  0  0  0  0  0  0  0  0  0
    7.5934   -1.4028   34.4205 C   0  0  0  0  0  0  0  0  0  0  0  0
    8.1731   -1.5664   35.8111 C   0  0  0  0  0  0  0  0  0  0  0  0
    8.9148   -0.6614   36.2819 O   0  0  0  0  0  0  0  0  0  0  0  0
    8.0222   -2.7866   36.5617 N   0  0  0  0  0  0  0  0  0  0  0  0
    8.8648   -3.1012   37.0991 H   0  0  0  0  0  0  0  0  0  0  0  0
    6.7462   -3.4355   36.9148 C   0  0  0  0  0  0  0  0  0  0  0  0
    6.4660   -4.6301   36.0311 C   0  0  0  0  0  0  0  0  0  0  0  0
    5.7556   -4.4982   35.0038 O   0  0  0  0  0  0  0  0  0  0  0  0
    6.8883   -5.9477   36.4084 N   0  0  0  0  0  0  0  0  0  0  0  0
    8.1385   -6.5334   35.9568 C   0  0  0  0  0  0  0  0  0  0  0  0
    7.9961   -8.0310   36.1853 C   0  0  0  0  0  0  0  0  0  0  0  0
    6.8503   -8.1863   37.1829 C   0  0  0  0  0  0  0  0  0  0  0  0
    6.0054   -6.9190   37.0415 C   0  0  0  0  0  0  0  0  0  0  0  0
    4.7853   -7.1707   36.1988 C   0  0  0  0  0  0  0  0  0  0  0  0
    3.6453   -6.4044   36.3946 O   0  0  0  0  0  0  0  0  0  0  0  0
    4.7857   -8.0937   35.3406 O   0  0  0  0  0  0  0  0  0  0  0  0
    2.8085   -6.5678   35.8481 H   0  0  0  0  0  0  0  0  0  0  0  0
    6.6894   -3.7718   38.4189 C   0  0  0  0  0  0  0  0  0  0  0  0
    4.9853   -3.7183   39.0697 S   0  0  0  0  0  0  0  0  0  0  0  0
    4.4772   -4.6835   38.1879 H   0  0  0  0  0  0  0  0  0  0  0  0
    6.1562   -0.8421   34.4840 C   0  0  0  0  0  0  0  0  0  0  0  0
    5.3991   -1.0401   33.1960 C   0  0  0  0  0  0  0  0  0  0  0  0
    4.3200   -1.8712   32.9993 C   0  0  0  0  0  0  0  0  0  0  0  0
    3.9403   -1.8055   31.7085 N   0  0  0  0  0  0  0  0  0  0  0  0
    4.8111   -0.9395   31.1472 C   0  0  0  0  0  0  0  0  0  0  0  0
    5.7094   -0.4567   32.0248 N   0  0  0  0  0  0  0  0  0  0  0  0
    6.5033    0.1915   31.8249 H   0  0  0  0  0  0  0  0  0  0  0  0
    8.9819   -3.9806   30.9733 C   0  0  0  0  0  0  0  0  0  0  0  0
    9.5304   -2.5436   30.9488 C   0  0  0  0  0  0  0  0  0  0  0  0
   10.9898   -2.5243   30.5868 C   0  0  0  0  0  0  0  0  0  0  0  0
   11.3447   -2.7498   29.3991 O   0  0  0  0  0  0  0  0  0  0  0  0
   11.9795   -2.2611   31.5834 N   0  0  0  0  0  0  0  0  0  0  0  0
   12.9892   -2.2045   31.3221 H   0  0  0  0  0  0  0  0  0  0  0  0
   11.7165   -2.1327   32.5850 H   0  0  0  0  0  0  0  0  0  0  0  0
   12.9010   -5.6547   30.9939 C   0  0  0  0  0  0  0  0  0  0  0  0
   14.2649   -6.2773   30.6494 C   0  0  0  0  0  0  0  0  0  0  0  0
   14.3305   -6.8232   29.2115 C   0  0  0  0  0  0  0  0  0  0  0  0
   15.3031   -8.0036   29.0073 C   0  0  0  0  0  0  0  0  0  0  0  0
   14.9285   -8.8524   27.8737 N   0  0  0  0  0  0  0  0  0  0  0  0
   15.1065   -8.3277   26.9844 H   0  0  0  0  0  0  0  0  0  0  0  0
   13.9101   -9.0612   27.9240 H   0  0  0  0  0  0  0  0  0  0  0  0
   12.6660  -11.1152   30.4096 C   0  0  0  0  0  0  0  0  0  0  0  0
   12.9332  -10.2252   29.5588 O   0  0  0  0  0  0  0  0  0  0  0  0
   11.3393  -11.2309   30.9300 N   0  0  0  0  0  0  0  0  0  0  0  0
   10.9525  -12.1851   31.1185 H   0  0  0  0  0  0  0  0  0  0  0  0
   13.7720  -11.9117   31.0378 C   0  0  0  0  0  0  0  0  0  0  0  0
   14.4656  -11.6626   33.4772 C   0  0  0  0  0  0  0  0  0  0  0  0
   14.2707  -10.8956   34.4647 O   0  0  0  0  0  0  0  0  0  0  0  0
   14.3210  -11.1305   32.1493 N   0  0  0  0  0  0  0  0  0  0  0  0
   14.3004  -10.0910   32.0683 H   0  0  0  0  0  0  0  0  0  0  0  0
   14.9416  -13.0823   33.7018 C   0  0  0  0  0  0  0  0  0  0  0  0
   14.0991  -15.4435   33.3356 C   0  0  0  0  0  0  0  0  0  0  0  0
   15.1654  -15.7678   32.7434 O   0  0  0  0  0  0  0  0  0  0  0  0
   13.8463  -14.0607   33.6349 N   0  0  0  0  0  0  0  0  0  0  0  0
   12.8649  -13.7806   33.8489 H   0  0  0  0  0  0  0  0  0  0  0  0
   13.0956  -16.4923   33.7528 C   0  0  0  0  0  0  0  0  0  0  0  0
   13.8316  -17.7739   34.1419 C   0  0  0  0  0  0  0  0  0  0  0  0
   10.9823  -15.9200   32.4367 C   0  0  0  0  0  0  0  0  0  0  0  0
   10.7118  -14.9709   33.2214 O   0  0  0  0  0  0  0  0  0  0  0  0
   12.1102  -16.7741   32.6944 N   0  0  0  0  0  0  0  0  0  0  0  0
   12.2306  -17.5938   32.0624 H   0  0  0  0  0  0  0  0  0  0  0  0
   10.1118  -16.1528   31.2265 C   0  0  0  0  0  0  0  0  0  0  0  0
   10.2669  -17.3675   29.0046 C   0  0  0  0  0  0  0  0  0  0  0  0
   10.5443  -16.8434   27.8898 O   0  0  0  0  0  0  0  0  0  0  0  0
   10.8826  -16.8412   30.1860 N   0  0  0  0  0  0  0  0  0  0  0  0
   11.8846  -16.5784   30.0922 H   0  0  0  0  0  0  0  0  0  0  0  0
    9.4204  -18.6295   29.0188 C   0  0  0  0  0  0  0  0  0  0  0  0
   11.1107  -20.1378   27.9303 C   0  0  0  0  0  0  0  0  0  0  0  0
   11.5575  -20.7219   28.9559 O   0  0  0  0  0  0  0  0  0  0  0  0
    9.7978  -19.5680   27.9596 N   0  0  0  0  0  0  0  0  0  0  0  0
    9.1080  -19.8683   27.2383 H   0  0  0  0  0  0  0  0  0  0  0  0
   11.2179  -19.3536   25.6166 N   0  0  0  0  0  0  0  0  0  0  0  0
   11.9899  -19.9578   26.7108 C   0  0  0  0  0  0  0  0  0  0  0  0
   11.8096  -19.3617   24.7528 H   0  0  0  0  0  0  0  0  0  0  0  0
   10.4012  -19.9705   25.4061 H   0  0  0  0  0  0  0  0  0  0  0  0
   13.2538  -19.1303   27.0338 C   0  0  0  0  0  0  0  0  0  0  0  0
   13.0721  -18.4909   28.2760 O   0  0  0  0  0  0  0  0  0  0  0  0
   14.5245  -19.9904   27.0867 C   0  0  0  0  0  0  0  0  0  0  0  0
   13.7627  -17.7827   28.3384 H   0  0  0  0  0  0  0  0  0  0  0  0
    7.9185  -18.3021   28.9536 C   0  0  0  0  0  0  0  0  0  0  0  0
    7.2252  -18.2678   30.3274 C   0  0  0  0  0  0  0  0  0  0  0  0
    5.8580  -18.9030   30.2939 C   0  0  0  0  0  0  0  0  0  0  0  0
    4.8954  -18.4146   30.9414 O   0  0  0  0  0  0  0  0  0  0  0  0
    5.6430  -20.0700   29.5025 N   0  0  0  0  0  0  0  0  0  0  0  0
    4.6984  -20.5077   29.4560 H   0  0  0  0  0  0  0  0  0  0  0  0
    6.4163  -20.4709   28.9221 H   0  0  0  0  0  0  0  0  0  0  0  0
    9.4092  -14.8829   30.6591 C   0  0  0  0  0  0  0  0  0  0  0  0
   10.2657  -13.8879   29.8484 C   0  0  0  0  0  0  0  0  0  0  0  0
    9.6263  -13.2909   28.6157 C   0  0  0  0  0  0  0  0  0  0  0  0
    9.3366  -12.0682   28.6277 O   0  0  0  0  0  0  0  0  0  0  0  0
    9.2949  -14.0621   27.4561 N   0  0  0  0  0  0  0  0  0  0  0  0
    9.3367  -15.1019   27.4403 H   0  0  0  0  0  0  0  0  0  0  0  0
    8.8821  -13.5875   26.6185 H   0  0  0  0  0  0  0  0  0  0  0  0
   15.6639  -13.1673   35.0625 C   0  0  0  0  0  0  0  0  0  0  0  0
   16.9252  -12.5498   35.0002 O   0  0  0  0  0  0  0  0  0  0  0  0
   16.7780  -11.5864   35.2051 H   0  0  0  0  0  0  0  0  0  0  0  0
   14.8720  -12.2694   30.0213 C   0  0  0  0  0  0  0  0  0  0  0  0
   14.5809  -13.5931   29.3726 C   0  0  0  0  0  0  0  0  0  0  0  0
   13.7136  -14.5594   29.8480 C   0  0  0  0  0  0  0  0  0  0  0  0
   13.7634  -15.6340   29.0339 N   0  0  0  0  0  0  0  0  0  0  0  0
   14.6612  -15.2916   28.0808 C   0  0  0  0  0  0  0  0  0  0  0  0
   15.1668  -14.0533   28.2573 N   0  0  0  0  0  0  0  0  0  0  0  0
   15.8871  -13.5814   27.6691 H   0  0  0  0  0  0  0  0  0  0  0  0
 95 96  1  0  0  0
 96 91  1  0  0  0
 91 92  2  0  0  0
 91 93  1  0  0  0
 93 90  1  0  0  0
 90103  1  0  0  0
103104  1  0  0  0
104105  1  0  0  0
105106  2  0  0  0
105107  1  0  0  0
 90 86  1  0  0  0
 86 87  2  0  0  0
 86 88  1  0  0  0
 88 85  1  0  0  0
 85110  1  0  0  0
110111  1  0  0  0
111112  1  0  0  0
112113  2  0  0  0
112114  1  0  0  0
 85 81  1  0  0  0
 81 82  2  0  0  0
 81 83  1  0  0  0
 83 79  1  0  0  0
 79 80  1  0  0  0
 79 75  1  0  0  0
 75 76  2  0  0  0
 75 77  1  0  0  0
 77 74  1  0  0  0
 74117  1  0  0  0
117118  1  0  0  0
 74 70  1  0  0  0
 70 71  2  0  0  0
 70 72  1  0  0  0
 72 69  1  0  0  0
 69120  1  0  0  0
120121  1  0  0  0
121122  2  0  0  0
122123  1  0  0  0
123124  2  0  0  0
124125  1  0  0  0
 69 65  1  0  0  0
 65 66  2  0  0  0
 65 67  1  0  0  0
 67  1  1  0  0  0
  1  2  1  0  0  0
  2  3  2  0  0  0
  3  4  1  0  0  0
  4  5  2  0  0  0
  5  6  1  0  0  0
  5  7  1  0  0  0
  7  8  2  0  0  0
  1 10  1  0  0  0
 10 11  2  0  0  0
 10 12  1  0  0  0
 12 14  1  0  0  0
 14 58  1  0  0  0
 58 59  1  0  0  0
 59 60  1  0  0  0
 60 61  1  0  0  0
 61 62  1  0  0  0
 14 15  1  0  0  0
 15 16  2  0  0  0
 15 17  1  0  0  0
 17 19  1  0  0  0
 19 51  1  0  0  0
 51 52  1  0  0  0
 52 53  1  0  0  0
 53 54  2  0  0  0
 53 55  1  0  0  0
 19 20  1  0  0  0
 20 21  2  0  0  0
 20 22  1  0  0  0
 22 24  1  0  0  0
 24 44  1  0  0  0
 44 45  1  0  0  0
 45 46  2  0  0  0
 46 47  1  0  0  0
 47 48  2  0  0  0
 48 49  1  0  0  0
 24 25  1  0  0  0
 25 26  2  0  0  0
 25 27  1  0  0  0
 27 29  1  0  0  0
 29 41  1  0  0  0
 41 42  1  0  0  0
 29 30  1  0  0  0
 30 31  2  0  0  0
 30 32  1  0  0  0
 32 33  1  0  0  0
 33 34  1  0  0  0
 34 35  1  0  0  0
 35 36  1  0  0  0
 36 37  1  0  0  0
 37 38  1  0  0  0
 37 39  2  0  0  0
 96 99  1  0  0  0
 99100  1  0  0  0
 99101  1  0  0  0
125121  1  0  0  0
  8  2  1  0  0  0
 49 45  1  0  0  0
 36 32  1  0  0  0
 95 97  1  0  0  0
 95 98  1  0  0  0
 93 94  1  0  0  0
107108  1  0  0  0
107109  1  0  0  0
 88 89  1  0  0  0
114115  1  0  0  0
114116  1  0  0  0
 83 84  1  0  0  0
 77 78  1  0  0  0
118119  1  0  0  0
 72 73  1  0  0  0
125126  1  0  0  0
 67 68  1  0  0  0
  6  9  1  0  0  0
 12 13  1  0  0  0
 62 63  1  0  0  0
 62 64  1  0  0  0
 17 18  1  0  0  0
 55 56  1  0  0  0
 55 57  1  0  0  0
 22 23  1  0  0  0
 49 50  1  0  0  0
 27 28  1  0  0  0
 42 43  1  0  0  0
 38 40  1  0  0  0
100102  1  0  0  0
M  END
> <minimizedAffinity>
-5.98122

$$$$



126129  0  0  0  0  0  0  0  0999 V2000
  -11.2230   -0.5759   10.2006 C   0  0  0  0  0  0  0  0  0  0  0  0
  -11.4688    0.7715    9.5621 C   0  0  0  0  0  0  0  0  0  0  0  0
  -12.7326    1.1068    9.0436 C   0  0  0  0  0  0  0  0  0  0  0  0
  -12.9602    2.3735    8.5005 C   0  0  0  0  0  0  0  0  0  0  0  0
  -11.9251    3.3155    8.4489 C   0  0  0  0  0  0  0  0  0  0  0  0
  -12.1631    4.5782    7.9074 O   0  0  0  0  0  0  0  0  0  0  0  0
  -10.6597    2.9843    8.9479 C   0  0  0  0  0  0  0  0  0  0  0  0
  -10.4374    1.7226    9.5094 C   0  0  0  0  0  0  0  0  0  0  0  0
  -11.4188    5.2602    7.8188 H   0  0  0  0  0  0  0  0  0  0  0  0
  -10.7972   -0.4156   11.6367 C   0  0  0  0  0  0  0  0  0  0  0  0
   -9.6107   -0.6566   11.9825 O   0  0  0  0  0  0  0  0  0  0  0  0
  -11.7598   -0.0272   12.6262 N   0  0  0  0  0  0  0  0  0  0  0  0
  -12.4264    0.7342   12.3607 H   0  0  0  0  0  0  0  0  0  0  0  0
  -12.1263   -0.8437   13.7951 C   0  0  0  0  0  0  0  0  0  0  0  0
  -12.7232    0.0515   14.8552 C   0  0  0  0  0  0  0  0  0  0  0  0
  -13.2182   -0.4432   15.9082 O   0  0  0  0  0  0  0  0  0  0  0  0
  -12.7370    1.4717   14.6541 N   0  0  0  0  0  0  0  0  0  0  0  0
  -12.1403    1.8647   13.8906 H   0  0  0  0  0  0  0  0  0  0  0  0
  -13.8084    2.3170   15.1934 C   0  0  0  0  0  0  0  0  0  0  0  0
  -13.2330    3.6267   15.6761 C   0  0  0  0  0  0  0  0  0  0  0  0
  -14.0024    4.5042   16.1497 O   0  0  0  0  0  0  0  0  0  0  0  0
  -11.8106    3.8474   15.6582 N   0  0  0  0  0  0  0  0  0  0  0  0
  -11.2077    3.0580   15.3249 H   0  0  0  0  0  0  0  0  0  0  0  0
  -11.1916    4.9923   16.3468 C   0  0  0  0  0  0  0  0  0  0  0  0
  -10.0101    5.5446   15.5752 C   0  0  0  0  0  0  0  0  0  0  0  0
   -9.1191    4.7544   15.1600 O   0  0  0  0  0  0  0  0  0  0  0  0
   -9.7946    6.9605   15.4207 N   0  0  0  0  0  0  0  0  0  0  0  0
   -8.8019    7.2848   15.5049 H   0  0  0  0  0  0  0  0  0  0  0  0
  -10.7462    7.9242   14.8379 C   0  0  0  0  0  0  0  0  0  0  0  0
  -11.5229    7.3157   13.6920 C   0  0  0  0  0  0  0  0  0  0  0  0
  -12.6944    6.9024   13.8770 O   0  0  0  0  0  0  0  0  0  0  0  0
  -10.9053    7.0795   12.4194 N   0  0  0  0  0  0  0  0  0  0  0  0
  -10.9843    8.0237   11.3185 C   0  0  0  0  0  0  0  0  0  0  0  0
  -10.6191    7.2316   10.0717 C   0  0  0  0  0  0  0  0  0  0  0  0
   -9.9010    5.9816   10.5759 C   0  0  0  0  0  0  0  0  0  0  0  0
  -10.3821    5.7812   12.0140 C   0  0  0  0  0  0  0  0  0  0  0  0
  -11.4473    4.7218   12.0878 C   0  0  0  0  0  0  0  0  0  0  0  0
  -12.6740    4.9375   11.4763 O   0  0  0  0  0  0  0  0  0  0  0  0
  -11.2399    3.6564   12.7284 O   0  0  0  0  0  0  0  0  0  0  0  0
  -13.4096    4.2433   11.5269 H   0  0  0  0  0  0  0  0  0  0  0  0
  -11.6543    8.5368   15.9236 C   0  0  0  0  0  0  0  0  0  0  0  0
  -11.9110   10.3262   15.6733 S   0  0  0  0  0  0  0  0  0  0  0  0
  -12.4596   10.2020   14.3884 H   0  0  0  0  0  0  0  0  0  0  0  0
  -10.7739    4.5785   17.7745 C   0  0  0  0  0  0  0  0  0  0  0  0
  -11.3044    5.5160   18.8286 C   0  0  0  0  0  0  0  0  0  0  0  0
  -11.9069    5.1601   20.0136 C   0  0  0  0  0  0  0  0  0  0  0  0
  -12.2790    6.2743   20.6729 N   0  0  0  0  0  0  0  0  0  0  0  0
  -11.9012    7.2853   19.8615 C   0  0  0  0  0  0  0  0  0  0  0  0
  -11.3058    6.8574   18.7334 N   0  0  0  0  0  0  0  0  0  0  0  0
  -10.9653    7.4415   17.9376 H   0  0  0  0  0  0  0  0  0  0  0  0
  -14.8732    2.5798   14.1074 C   0  0  0  0  0  0  0  0  0  0  0  0
  -14.3859    2.1904   12.7013 C   0  0  0  0  0  0  0  0  0  0  0  0
  -15.2176    1.0774   12.1260 C   0  0  0  0  0  0  0  0  0  0  0  0
  -14.6664    0.0018   11.7701 O   0  0  0  0  0  0  0  0  0  0  0  0
  -16.6295    1.2343   11.9708 N   0  0  0  0  0  0  0  0  0  0  0  0
  -17.2117    0.4448   11.6123 H   0  0  0  0  0  0  0  0  0  0  0  0
  -17.1008    2.1367   12.1998 H   0  0  0  0  0  0  0  0  0  0  0  0
  -10.9560   -1.7051   14.3345 C   0  0  0  0  0  0  0  0  0  0  0  0
  -10.3553   -1.1368   15.6317 C   0  0  0  0  0  0  0  0  0  0  0  0
   -9.0705   -0.3230   15.3931 C   0  0  0  0  0  0  0  0  0  0  0  0
   -9.2401    1.2070   15.5001 C   0  0  0  0  0  0  0  0  0  0  0  0
   -9.6367    1.8199   14.2300 N   0  0  0  0  0  0  0  0  0  0  0  0
  -10.6275    1.5518   14.0196 H   0  0  0  0  0  0  0  0  0  0  0  0
   -9.0350    1.4470   13.4672 H   0  0  0  0  0  0  0  0  0  0  0  0
  -12.3049   -2.8418   10.1521 C   0  0  0  0  0  0  0  0  0  0  0  0
  -11.4498   -3.4332    9.4404 O   0  0  0  0  0  0  0  0  0  0  0  0
  -12.4190   -1.4176   10.0963 N   0  0  0  0  0  0  0  0  0  0  0  0
  -13.3700   -0.9847   10.1579 H   0  0  0  0  0  0  0  0  0  0  0  0
  -13.0537   -3.5965   11.2113 C   0  0  0  0  0  0  0  0  0  0  0  0
  -12.2804   -4.8530   13.2890 C   0  0  0  0  0  0  0  0  0  0  0  0
  -11.2610   -4.9601   14.0311 O   0  0  0  0  0  0  0  0  0  0  0  0
  -12.0998   -4.4542   11.9195 N   0  0  0  0  0  0  0  0  0  0  0  0
  -11.1271   -4.5083   11.5474 H   0  0  0  0  0  0  0  0  0  0  0  0
  -13.6462   -5.2394   13.8160 C   0  0  0  0  0  0  0  0  0  0  0  0
  -14.9966   -3.3050   14.7400 C   0  0  0  0  0  0  0  0  0  0  0  0
  -15.1357   -2.8084   13.5880 O   0  0  0  0  0  0  0  0  0  0  0  0
  -14.0776   -4.3922   14.9375 N   0  0  0  0  0  0  0  0  0  0  0  0
  -13.7606   -4.5909   15.9108 H   0  0  0  0  0  0  0  0  0  0  0  0
  -15.7995   -2.7855   15.9090 C   0  0  0  0  0  0  0  0  0  0  0  0
  -16.4584   -1.4613   15.5248 C   0  0  0  0  0  0  0  0  0  0  0  0
  -14.7463   -3.6723   18.0609 C   0  0  0  0  0  0  0  0  0  0  0  0
  -15.3787   -4.7585   17.9609 O   0  0  0  0  0  0  0  0  0  0  0  0
  -14.9758   -2.6108   17.1180 N   0  0  0  0  0  0  0  0  0  0  0  0
  -14.4917   -1.7070   17.3038 H   0  0  0  0  0  0  0  0  0  0  0  0
  -13.7485   -3.4951   19.1787 C   0  0  0  0  0  0  0  0  0  0  0  0
  -15.0806   -2.2116   20.9148 C   0  0  0  0  0  0  0  0  0  0  0  0
  -14.7534   -2.0373   22.1219 O   0  0  0  0  0  0  0  0  0  0  0  0
  -14.0494   -2.2674   19.9222 N   0  0  0  0  0  0  0  0  0  0  0  0
  -13.2705   -1.5890   20.0441 H   0  0  0  0  0  0  0  0  0  0  0  0
  -16.5575   -2.1927   20.5569 C   0  0  0  0  0  0  0  0  0  0  0  0
  -17.1922   -0.0204   19.4637 C   0  0  0  0  0  0  0  0  0  0  0  0
  -17.7267   -0.4669   18.4114 O   0  0  0  0  0  0  0  0  0  0  0  0
  -17.1335   -0.8482   20.6301 N   0  0  0  0  0  0  0  0  0  0  0  0
  -17.5470   -0.4895   21.5171 H   0  0  0  0  0  0  0  0  0  0  0  0
  -16.9180    2.0871   20.6733 N   0  0  0  0  0  0  0  0  0  0  0  0
  -16.5341    1.3432   19.4660 C   0  0  0  0  0  0  0  0  0  0  0  0
  -16.5574    3.0661   20.5852 H   0  0  0  0  0  0  0  0  0  0  0  0
  -17.9594    2.1699   20.6954 H   0  0  0  0  0  0  0  0  0  0  0  0
  -14.9986    1.2377   19.3324 C   0  0  0  0  0  0  0  0  0  0  0  0
  -14.6944    0.3072   18.3192 O   0  0  0  0  0  0  0  0  0  0  0  0
  -14.3416    2.5845   18.9986 C   0  0  0  0  0  0  0  0  0  0  0  0
  -13.7383    0.0689   18.4257 H   0  0  0  0  0  0  0  0  0  0  0  0
  -17.3598   -3.1822   21.4197 C   0  0  0  0  0  0  0  0  0  0  0  0
  -16.9216   -4.6491   21.2608 C   0  0  0  0  0  0  0  0  0  0  0  0
  -17.8575   -5.4326   20.3753 C   0  0  0  0  0  0  0  0  0  0  0  0
  -19.0839   -5.1557   20.3150 O   0  0  0  0  0  0  0  0  0  0  0  0
  -17.3451   -6.4981   19.5774 N   0  0  0  0  0  0  0  0  0  0  0  0
  -17.9779   -7.0350   18.9472 H   0  0  0  0  0  0  0  0  0  0  0  0
  -16.3224   -6.7207   19.5778 H   0  0  0  0  0  0  0  0  0  0  0  0
  -12.2520   -3.5390   18.7466 C   0  0  0  0  0  0  0  0  0  0  0  0
  -11.7854   -4.7331   17.8879 C   0  0  0  0  0  0  0  0  0  0  0  0
  -10.2968   -4.8631   17.6598 C   0  0  0  0  0  0  0  0  0  0  0  0
   -9.5203   -4.5281   18.5893 O   0  0  0  0  0  0  0  0  0  0  0  0
   -9.7319   -5.3057   16.4212 N   0  0  0  0  0  0  0  0  0  0  0  0
  -10.2968   -5.4260   15.5555 H   0  0  0  0  0  0  0  0  0  0  0  0
   -8.6931   -5.4068   16.3320 H   0  0  0  0  0  0  0  0  0  0  0  0
  -13.6290   -6.7249   14.2325 C   0  0  0  0  0  0  0  0  0  0  0  0
  -12.7806   -6.9269   15.3351 O   0  0  0  0  0  0  0  0  0  0  0  0
  -13.3321   -6.7662   16.1484 H   0  0  0  0  0  0  0  0  0  0  0  0
  -14.2061   -4.4282   10.6188 C   0  0  0  0  0  0  0  0  0  0  0  0
  -15.2630   -3.5297   10.0414 C   0  0  0  0  0  0  0  0  0  0  0  0
  -15.7134   -3.5384    8.7341 C   0  0  0  0  0  0  0  0  0  0  0  0
  -16.6167   -2.5493    8.5735 N   0  0  0  0  0  0  0  0  0  0  0  0
  -16.6935   -1.9641    9.7914 C   0  0  0  0  0  0  0  0  0  0  0  0
  -15.8882   -2.5455   10.7043 N   0  0  0  0  0  0  0  0  0  0  0  0
  -15.7585   -2.2580   11.6983 H   0  0  0  0  0  0  0  0  0  0  0  0
 95 96  1  0  0  0
 96 91  1  0  0  0
 91 92  2  0  0  0
 91 93  1  0  0  0
 93 90  1  0  0  0
 90103  1  0  0  0
103104  1  0  0  0
104105  1  0  0  0
105106  2  0  0  0
105107  1  0  0  0
 90 86  1  0  0  0
 86 87  2  0  0  0
 86 88  1  0  0  0
 88 85  1  0  0  0
 85110  1  0  0  0
110111  1  0  0  0
111112  1  0  0  0
112113  2  0  0  0
112114  1  0  0  0
 85 81  1  0  0  0
 81 82  2  0  0  0
 81 83  1  0  0  0
 83 79  1  0  0  0
 79 80  1  0  0  0
 79 75  1  0  0  0
 75 76  2  0  0  0
 75 77  1  0  0  0
 77 74  1  0  0  0
 74117  1  0  0  0
117118  1  0  0  0
 74 70  1  0  0  0
 70 71  2  0  0  0
 70 72  1  0  0  0
 72 69  1  0  0  0
 69120  1  0  0  0
120121  1  0  0  0
121122  2  0  0  0
122123  1  0  0  0
123124  2  0  0  0
124125  1  0  0  0
 69 65  1  0  0  0
 65 66  2  0  0  0
 65 67  1  0  0  0
 67  1  1  0  0  0
  1  2  1  0  0  0
  2  3  2  0  0  0
  3  4  1  0  0  0
  4  5  2  0  0  0
  5  6  1  0  0  0
  5  7  1  0  0  0
  7  8  2  0  0  0
  1 10  1  0  0  0
 10 11  2  0  0  0
 10 12  1  0  0  0
 12 14  1  0  0  0
 14 58  1  0  0  0
 58 59  1  0  0  0
 59 60  1  0  0  0
 60 61  1  0  0  0
 61 62  1  0  0  0
 14 15  1  0  0  0
 15 16  2  0  0  0
 15 17  1  0  0  0
 17 19  1  0  0  0
 19 51  1  0  0  0
 51 52  1  0  0  0
 52 53  1  0  0  0
 53 54  2  0  0  0
 53 55  1  0  0  0
 19 20  1  0  0  0
 20 21  2  0  0  0
 20 22  1  0  0  0
 22 24  1  0  0  0
 24 44  1  0  0  0
 44 45  1  0  0  0
 45 46  2  0  0  0
 46 47  1  0  0  0
 47 48  2  0  0  0
 48 49  1  0  0  0
 24 25  1  0  0  0
 25 26  2  0  0  0
 25 27  1  0  0  0
 27 29  1  0  0  0
 29 41  1  0  0  0
 41 42  1  0  0  0
 29 30  1  0  0  0
 30 31  2  0  0  0
 30 32  1  0  0  0
 32 33  1  0  0  0
 33 34  1  0  0  0
 34 35  1  0  0  0
 35 36  1  0  0  0
 36 37  1  0  0  0
 37 38  1  0  0  0
 37 39  2  0  0  0
 96 99  1  0  0  0
 99100  1  0  0  0
 99101  1  0  0  0
125121  1  0  0  0
  8  2  1  0  0  0
 49 45  1  0  0  0
 36 32  1  0  0  0
 95 97  1  0  0  0
 95 98  1  0  0  0
 93 94  1  0  0  0
107108  1  0  0  0
107109  1  0  0  0
 88 89  1  0  0  0
114115  1  0  0  0
114116  1  0  0  0
 83 84  1  0  0  0
 77 78  1  0  0  0
118119  1  0  0  0
 72 73  1  0  0  0
125126  1  0  0  0
 67 68  1  0  0  0
  6  9  1  0  0  0
 12 13  1  0  0  0
 62 63  1  0  0  0
 62 64  1  0  0  0
 17 18  1  0  0  0
 55 56  1  0  0  0
 55 57  1  0  0  0
 22 23  1  0  0  0
 49 50  1  0  0  0
 27 28  1  0  0  0
 42 43  1  0  0  0
 38 40  1  0  0  0
100102  1  0  0  0
M  END
> <minimizedAffinity>
-5.93069

$$$$
