


126129  0  0  0  0  0  0  0  0999 V2000
   47.2041   83.7967   47.5938 C   0  0  0  0  0  0  0  0  0  0  0  0
   46.7594   85.1686   48.0449 C   0  0  0  0  0  0  0  0  0  0  0  0
   47.5444   86.3061   47.7834 C   0  0  0  0  0  0  0  0  0  0  0  0
   47.0987   87.5746   48.1621 C   0  0  0  0  0  0  0  0  0  0  0  0
   45.8737   87.7235   48.8246 C   0  0  0  0  0  0  0  0  0  0  0  0
   45.4363   88.9943   49.1960 O   0  0  0  0  0  0  0  0  0  0  0  0
   45.0938   86.5948   49.1033 C   0  0  0  0  0  0  0  0  0  0  0  0
   45.5312   85.3268   48.7066 C   0  0  0  0  0  0  0  0  0  0  0  0
   44.5755   89.1222   49.7152 H   0  0  0  0  0  0  0  0  0  0  0  0
   46.7292   82.7392   48.5558 C   0  0  0  0  0  0  0  0  0  0  0  0
   46.7660   82.9420   49.7980 O   0  0  0  0  0  0  0  0  0  0  0  0
   46.2719   81.4751   48.0564 N   0  0  0  0  0  0  0  0  0  0  0  0
   45.6540   81.4983   47.2125 H   0  0  0  0  0  0  0  0  0  0  0  0
   46.8893   80.1793   48.3836 C   0  0  0  0  0  0  0  0  0  0  0  0
   46.1307   79.5451   49.5254 C   0  0  0  0  0  0  0  0  0  0  0  0
   46.7506   78.9896   50.4771 O   0  0  0  0  0  0  0  0  0  0  0  0
   44.6965   79.5654   49.5177 N   0  0  0  0  0  0  0  0  0  0  0  0
   44.2187   80.2062   48.8436 H   0  0  0  0  0  0  0  0  0  0  0  0
   43.9063   78.4828   50.1149 C   0  0  0  0  0  0  0  0  0  0  0  0
   43.0931   79.0189   51.2684 C   0  0  0  0  0  0  0  0  0  0  0  0
   42.2206   79.9015   51.0538 O   0  0  0  0  0  0  0  0  0  0  0  0
   43.2647   78.4805   52.5923 N   0  0  0  0  0  0  0  0  0  0  0  0
   43.9495   77.6956   52.7050 H   0  0  0  0  0  0  0  0  0  0  0  0
   42.3272   78.7878   53.6854 C   0  0  0  0  0  0  0  0  0  0  0  0
   43.0125   78.7790   55.0370 C   0  0  0  0  0  0  0  0  0  0  0  0
   44.1272   78.2022   55.1611 O   0  0  0  0  0  0  0  0  0  0  0  0
   42.3683   79.2849   56.2220 N   0  0  0  0  0  0  0  0  0  0  0  0
   42.5144   78.7269   57.0966 H   0  0  0  0  0  0  0  0  0  0  0  0
   41.8249   80.6439   56.4009 C   0  0  0  0  0  0  0  0  0  0  0  0
   41.6734   80.9947   57.8640 C   0  0  0  0  0  0  0  0  0  0  0  0
   40.5583   81.3634   58.3089 O   0  0  0  0  0  0  0  0  0  0  0  0
   42.8098   81.0405   58.7377 N   0  0  0  0  0  0  0  0  0  0  0  0
   43.2157   79.9149   59.5611 C   0  0  0  0  0  0  0  0  0  0  0  0
   44.1310   80.4965   60.6285 C   0  0  0  0  0  0  0  0  0  0  0  0
   44.5741   81.8560   60.0922 C   0  0  0  0  0  0  0  0  0  0  0  0
   43.4957   82.2764   59.0921 C   0  0  0  0  0  0  0  0  0  0  0  0
   42.5436   83.2670   59.7043 C   0  0  0  0  0  0  0  0  0  0  0  0
   41.5664   82.8263   60.5852 O   0  0  0  0  0  0  0  0  0  0  0  0
   42.6112   84.4870   59.3953 O   0  0  0  0  0  0  0  0  0  0  0  0
   40.9063   83.4748   60.9966 H   0  0  0  0  0  0  0  0  0  0  0  0
   42.6507   81.6823   55.6144 C   0  0  0  0  0  0  0  0  0  0  0  0
   41.7450   82.3239   54.1658 S   0  0  0  0  0  0  0  0  0  0  0  0
   40.6525   82.8107   54.8986 H   0  0  0  0  0  0  0  0  0  0  0  0
   41.1487   77.7907   53.6575 C   0  0  0  0  0  0  0  0  0  0  0  0
   39.9864   78.2895   52.8380 C   0  0  0  0  0  0  0  0  0  0  0  0
   39.2783   77.5738   51.8997 C   0  0  0  0  0  0  0  0  0  0  0  0
   38.3388   78.3693   51.3529 N   0  0  0  0  0  0  0  0  0  0  0  0
   38.5084   79.5593   51.9682 C   0  0  0  0  0  0  0  0  0  0  0  0
   39.5011   79.5431   52.8761 N   0  0  0  0  0  0  0  0  0  0  0  0
   39.8482   80.3450   53.4479 H   0  0  0  0  0  0  0  0  0  0  0  0
   42.9701   77.8637   49.0554 C   0  0  0  0  0  0  0  0  0  0  0  0
   43.7421   77.1124   47.9573 C   0  0  0  0  0  0  0  0  0  0  0  0
   43.4604   77.6936   46.5993 C   0  0  0  0  0  0  0  0  0  0  0  0
   43.7438   77.0343   45.5636 O   0  0  0  0  0  0  0  0  0  0  0  0
   42.8817   78.9941   46.4741 N   0  0  0  0  0  0  0  0  0  0  0  0
   42.6461   79.3783   45.5319 H   0  0  0  0  0  0  0  0  0  0  0  0
   42.6952   79.5852   47.3136 H   0  0  0  0  0  0  0  0  0  0  0  0
   48.4110   80.2763   48.6620 C   0  0  0  0  0  0  0  0  0  0  0  0
   49.2491   80.2465   47.3723 C   0  0  0  0  0  0  0  0  0  0  0  0
   50.3678   79.1896   47.4067 C   0  0  0  0  0  0  0  0  0  0  0  0
   51.7403   79.7100   47.8826 C   0  0  0  0  0  0  0  0  0  0  0  0
   52.6106   78.6377   48.3714 N   0  0  0  0  0  0  0  0  0  0  0  0
   52.9207   78.0557   47.5572 H   0  0  0  0  0  0  0  0  0  0  0  0
   52.0700   78.0249   49.0158 H   0  0  0  0  0  0  0  0  0  0  0  0
   47.6224   83.6185   45.1238 C   0  0  0  0  0  0  0  0  0  0  0  0
   48.3604   84.6314   44.9938 O   0  0  0  0  0  0  0  0  0  0  0  0
   46.7265   83.5251   46.2343 N   0  0  0  0  0  0  0  0  0  0  0  0
   45.7841   83.0941   46.0876 H   0  0  0  0  0  0  0  0  0  0  0  0
   47.8295   82.4192   44.2459 C   0  0  0  0  0  0  0  0  0  0  0  0
   49.9325   81.0469   43.8122 C   0  0  0  0  0  0  0  0  0  0  0  0
   51.1206   80.9383   44.2340 O   0  0  0  0  0  0  0  0  0  0  0  0
   49.2612   82.3105   43.9539 N   0  0  0  0  0  0  0  0  0  0  0  0
   49.8650   83.1316   44.1747 H   0  0  0  0  0  0  0  0  0  0  0  0
   49.2783   79.8929   43.0822 C   0  0  0  0  0  0  0  0  0  0  0  0
   48.7844   77.4246   43.3692 C   0  0  0  0  0  0  0  0  0  0  0  0
   47.6679   77.5469   42.7937 O   0  0  0  0  0  0  0  0  0  0  0  0
   49.5257   78.5998   43.7364 N   0  0  0  0  0  0  0  0  0  0  0  0
   50.2782   78.4971   44.4510 H   0  0  0  0  0  0  0  0  0  0  0  0
   49.3611   76.0587   43.6574 C   0  0  0  0  0  0  0  0  0  0  0  0
   50.2503   75.6261   42.4923 C   0  0  0  0  0  0  0  0  0  0  0  0
   47.6285   74.9297   45.1572 C   0  0  0  0  0  0  0  0  0  0  0  0
   48.0156   75.5921   46.1578 O   0  0  0  0  0  0  0  0  0  0  0  0
   48.3143   75.0506   43.8989 N   0  0  0  0  0  0  0  0  0  0  0  0
   48.0056   74.4131   43.1346 H   0  0  0  0  0  0  0  0  0  0  0  0
   46.4412   74.0083   45.2918 C   0  0  0  0  0  0  0  0  0  0  0  0
   45.9101   72.9348   47.5282 C   0  0  0  0  0  0  0  0  0  0  0  0
   45.1843   71.9176   47.7096 O   0  0  0  0  0  0  0  0  0  0  0  0
   46.7017   73.0131   46.3369 N   0  0  0  0  0  0  0  0  0  0  0  0
   47.1542   72.1255   46.0383 H   0  0  0  0  0  0  0  0  0  0  0  0
   46.0296   73.9472   48.6552 C   0  0  0  0  0  0  0  0  0  0  0  0
   48.2892   74.7720   49.3838 C   0  0  0  0  0  0  0  0  0  0  0  0
   48.0011   75.9763   49.6273 O   0  0  0  0  0  0  0  0  0  0  0  0
   47.2603   73.7779   49.4309 N   0  0  0  0  0  0  0  0  0  0  0  0
   47.3890   72.9569   50.0600 H   0  0  0  0  0  0  0  0  0  0  0  0
   49.6363   73.4346   47.8422 N   0  0  0  0  0  0  0  0  0  0  0  0
   49.6908   74.3948   48.9528 C   0  0  0  0  0  0  0  0  0  0  0  0
   50.6083   73.0943   47.6535 H   0  0  0  0  0  0  0  0  0  0  0  0
   49.0981   72.5952   48.1548 H   0  0  0  0  0  0  0  0  0  0  0  0
   50.5300   75.6381   48.5834 C   0  0  0  0  0  0  0  0  0  0  0  0
   50.9413   76.2766   49.7700 O   0  0  0  0  0  0  0  0  0  0  0  0
   51.7649   75.2874   47.7414 C   0  0  0  0  0  0  0  0  0  0  0  0
   51.2464   77.1849   49.5167 H   0  0  0  0  0  0  0  0  0  0  0  0
   44.7940   73.9197   49.5716 C   0  0  0  0  0  0  0  0  0  0  0  0
   45.1281   73.9529   51.0737 C   0  0  0  0  0  0  0  0  0  0  0  0
   44.8739   75.3072   51.6862 C   0  0  0  0  0  0  0  0  0  0  0  0
   43.7477   75.6077   52.1613 O   0  0  0  0  0  0  0  0  0  0  0  0
   45.9309   76.2632   51.7445 N   0  0  0  0  0  0  0  0  0  0  0  0
   45.7735   77.1957   52.1820 H   0  0  0  0  0  0  0  0  0  0  0  0
   46.8876   76.0227   51.3946 H   0  0  0  0  0  0  0  0  0  0  0  0
   45.9753   73.3276   43.9698 C   0  0  0  0  0  0  0  0  0  0  0  0
   44.7734   73.9466   43.2260 C   0  0  0  0  0  0  0  0  0  0  0  0
   45.0376   75.2170   42.4505 C   0  0  0  0  0  0  0  0  0  0  0  0
   45.3858   75.1187   41.2471 O   0  0  0  0  0  0  0  0  0  0  0  0
   44.9538   76.5209   43.0352 N   0  0  0  0  0  0  0  0  0  0  0  0
   44.8503   76.6734   44.0595 H   0  0  0  0  0  0  0  0  0  0  0  0
   45.1166   77.3673   42.4399 H   0  0  0  0  0  0  0  0  0  0  0  0
   49.7760   79.8672   41.6220 C   0  0  0  0  0  0  0  0  0  0  0  0
   50.3768   81.0899   41.2753 O   0  0  0  0  0  0  0  0  0  0  0  0
   51.3340   81.0190   41.5407 H   0  0  0  0  0  0  0  0  0  0  0  0
   47.0087   82.5092   42.9462 C   0  0  0  0  0  0  0  0  0  0  0  0
   46.0356   81.3678   42.8563 C   0  0  0  0  0  0  0  0  0  0  0  0
   45.7572   80.6228   41.7251 C   0  0  0  0  0  0  0  0  0  0  0  0
   44.7871   79.7308   42.0138 N   0  0  0  0  0  0  0  0  0  0  0  0
   44.5013   79.9560   43.3173 C   0  0  0  0  0  0  0  0  0  0  0  0
   45.2513   80.9393   43.8564 N   0  0  0  0  0  0  0  0  0  0  0  0
   45.1967   81.3057   44.8312 H   0  0  0  0  0  0  0  0  0  0  0  0
 95 96  1  0  0  0
 96 91  1  0  0  0
 91 92  2  0  0  0
 91 93  1  0  0  0
 93 90  1  0  0  0
 90103  1  0  0  0
103104  1  0  0  0
104105  1  0  0  0
105106  2  0  0  0
105107  1  0  0  0
 90 86  1  0  0  0
 86 87  2  0  0  0
 86 88  1  0  0  0
 88 85  1  0  0  0
 85110  1  0  0  0
110111  1  0  0  0
111112  1  0  0  0
112113  2  0  0  0
112114  1  0  0  0
 85 81  1  0  0  0
 81 82  2  0  0  0
 81 83  1  0  0  0
 83 79  1  0  0  0
 79 80  1  0  0  0
 79 75  1  0  0  0
 75 76  2  0  0  0
 75 77  1  0  0  0
 77 74  1  0  0  0
 74117  1  0  0  0
117118  1  0  0  0
 74 70  1  0  0  0
 70 71  2  0  0  0
 70 72  1  0  0  0
 72 69  1  0  0  0
 69120  1  0  0  0
120121  1  0  0  0
121122  2  0  0  0
122123  1  0  0  0
123124  2  0  0  0
124125  1  0  0  0
 69 65  1  0  0  0
 65 66  2  0  0  0
 65 67  1  0  0  0
 67  1  1  0  0  0
  1  2  1  0  0  0
  2  3  2  0  0  0
  3  4  1  0  0  0
  4  5  2  0  0  0
  5  6  1  0  0  0
  5  7  1  0  0  0
  7  8  2  0  0  0
  1 10  1  0  0  0
 10 11  2  0  0  0
 10 12  1  0  0  0
 12 14  1  0  0  0
 14 58  1  0  0  0
 58 59  1  0  0  0
 59 60  1  0  0  0
 60 61  1  0  0  0
 61 62  1  0  0  0
 14 15  1  0  0  0
 15 16  2  0  0  0
 15 17  1  0  0  0
 17 19  1  0  0  0
 19 51  1  0  0  0
 51 52  1  0  0  0
 52 53  1  0  0  0
 53 54  2  0  0  0
 53 55  1  0  0  0
 19 20  1  0  0  0
 20 21  2  0  0  0
 20 22  1  0  0  0
 22 24  1  0  0  0
 24 44  1  0  0  0
 44 45  1  0  0  0
 45 46  2  0  0  0
 46 47  1  0  0  0
 47 48  2  0  0  0
 48 49  1  0  0  0
 24 25  1  0  0  0
 25 26  2  0  0  0
 25 27  1  0  0  0
 27 29  1  0  0  0
 29 41  1  0  0  0
 41 42  1  0  0  0
 29 30  1  0  0  0
 30 31  2  0  0  0
 30 32  1  0  0  0
 32 33  1  0  0  0
 33 34  1  0  0  0
 34 35  1  0  0  0
 35 36  1  0  0  0
 36 37  1  0  0  0
 37 38  1  0  0  0
 37 39  2  0  0  0
 96 99  1  0  0  0
 99100  1  0  0  0
 99101  1  0  0  0
125121  1  0  0  0
  8  2  1  0  0  0
 49 45  1  0  0  0
 36 32  1  0  0  0
 95 97  1  0  0  0
 95 98  1  0  0  0
 93 94  1  0  0  0
107108  1  0  0  0
107109  1  0  0  0
 88 89  1  0  0  0
114115  1  0  0  0
114116  1  0  0  0
 83 84  1  0  0  0
 77 78  1  0  0  0
118119  1  0  0  0
 72 73  1  0  0  0
125126  1  0  0  0
 67 68  1  0  0  0
  6  9  1  0  0  0
 12 13  1  0  0  0
 62 63  1  0  0  0
 62 64  1  0  0  0
 17 18  1  0  0  0
 55 56  1  0  0  0
 55 57  1  0  0  0
 22 23  1  0  0  0
 49 50  1  0  0  0
 27 28  1  0  0  0
 42 43  1  0  0  0
 38 40  1  0  0  0
100102  1  0  0  0
M  END
> <minimizedAffinity>
-7.63572

$$$$



126129  0  0  0  0  0  0  0  0999 V2000
   46.5343   77.3082   43.7901 C   0  0  0  0  0  0  0  0  0  0  0  0
   45.5694   76.8186   42.7352 C   0  0  0  0  0  0  0  0  0  0  0  0
   45.4219   77.5037   41.5156 C   0  0  0  0  0  0  0  0  0  0  0  0
   44.5631   77.0133   40.5290 C   0  0  0  0  0  0  0  0  0  0  0  0
   43.8251   75.8444   40.7534 C   0  0  0  0  0  0  0  0  0  0  0  0
   42.9727   75.3614   39.7612 O   0  0  0  0  0  0  0  0  0  0  0  0
   43.9537   75.1652   41.9708 C   0  0  0  0  0  0  0  0  0  0  0  0
   44.8283   75.6458   42.9510 C   0  0  0  0  0  0  0  0  0  0  0  0
   42.3956   74.5432   39.9175 H   0  0  0  0  0  0  0  0  0  0  0  0
   46.0161   78.5613   44.4461 C   0  0  0  0  0  0  0  0  0  0  0  0
   44.7779   78.7525   44.5709 O   0  0  0  0  0  0  0  0  0  0  0  0
   46.9378   79.5648   44.8935 N   0  0  0  0  0  0  0  0  0  0  0  0
   47.7967   79.2283   45.3870 H   0  0  0  0  0  0  0  0  0  0  0  0
   46.9668   80.9492   44.3935 C   0  0  0  0  0  0  0  0  0  0  0  0
   48.2526   81.1727   43.6331 C   0  0  0  0  0  0  0  0  0  0  0  0
   48.6014   82.3390   43.2916 O   0  0  0  0  0  0  0  0  0  0  0  0
   49.0732   80.0481   43.2878 N   0  0  0  0  0  0  0  0  0  0  0  0
   48.8776   79.1352   43.7588 H   0  0  0  0  0  0  0  0  0  0  0  0
   49.8833   80.0307   42.0644 C   0  0  0  0  0  0  0  0  0  0  0  0
   50.6902   78.7561   42.0029 C   0  0  0  0  0  0  0  0  0  0  0  0
   50.1040   77.6462   42.1079 O   0  0  0  0  0  0  0  0  0  0  0  0
   52.1082   78.8033   41.7598 N   0  0  0  0  0  0  0  0  0  0  0  0
   52.5362   79.7469   41.6044 H   0  0  0  0  0  0  0  0  0  0  0  0
   52.8842   77.5932   41.4408 C   0  0  0  0  0  0  0  0  0  0  0  0
   53.8097   77.2001   42.5745 C   0  0  0  0  0  0  0  0  0  0  0  0
   53.9164   75.9841   42.8919 O   0  0  0  0  0  0  0  0  0  0  0  0
   54.4664   78.1824   43.3985 N   0  0  0  0  0  0  0  0  0  0  0  0
   54.5106   77.9657   44.4226 H   0  0  0  0  0  0  0  0  0  0  0  0
   55.3527   79.2606   42.9232 C   0  0  0  0  0  0  0  0  0  0  0  0
   55.1956   80.5160   43.7514 C   0  0  0  0  0  0  0  0  0  0  0  0
   55.9724   80.7344   44.7138 O   0  0  0  0  0  0  0  0  0  0  0  0
   54.0925   81.4088   43.5440 N   0  0  0  0  0  0  0  0  0  0  0  0
   54.1774   82.5798   42.6887 C   0  0  0  0  0  0  0  0  0  0  0  0
   53.0066   83.4655   43.0886 C   0  0  0  0  0  0  0  0  0  0  0  0
   52.0383   82.5519   43.8370 C   0  0  0  0  0  0  0  0  0  0  0  0
   52.8873   81.3933   44.3630 C   0  0  0  0  0  0  0  0  0  0  0  0
   53.2196   81.5801   45.8180 C   0  0  0  0  0  0  0  0  0  0  0  0
   54.0907   82.5906   46.1993 O   0  0  0  0  0  0  0  0  0  0  0  0
   52.7354   80.8037   46.6846 O   0  0  0  0  0  0  0  0  0  0  0  0
   54.3391   82.7236   47.1720 H   0  0  0  0  0  0  0  0  0  0  0  0
   56.8150   78.7794   42.8292 C   0  0  0  0  0  0  0  0  0  0  0  0
   57.4374   78.8080   41.1140 S   0  0  0  0  0  0  0  0  0  0  0  0
   57.2099   80.1776   40.9141 H   0  0  0  0  0  0  0  0  0  0  0  0
   53.6750   77.8107   40.1326 C   0  0  0  0  0  0  0  0  0  0  0  0
   53.1296   77.0017   38.9840 C   0  0  0  0  0  0  0  0  0  0  0  0
   51.8043   76.8477   38.6466 C   0  0  0  0  0  0  0  0  0  0  0  0
   51.7108   76.0235   37.5852 N   0  0  0  0  0  0  0  0  0  0  0  0
   52.9888   75.6860   37.3098 C   0  0  0  0  0  0  0  0  0  0  0  0
   53.8744   76.2643   38.1414 N   0  0  0  0  0  0  0  0  0  0  0  0
   54.9096   76.1282   38.1566 H   0  0  0  0  0  0  0  0  0  0  0  0
   48.9713   80.1352   40.8236 C   0  0  0  0  0  0  0  0  0  0  0  0
   49.6104   80.9600   39.6933 C   0  0  0  0  0  0  0  0  0  0  0  0
   50.6025   81.9507   40.2367 C   0  0  0  0  0  0  0  0  0  0  0  0
   51.8322   81.6760   40.2287 O   0  0  0  0  0  0  0  0  0  0  0  0
   50.1598   83.1996   40.7718 N   0  0  0  0  0  0  0  0  0  0  0  0
   50.8530   83.9047   41.1084 H   0  0  0  0  0  0  0  0  0  0  0  0
   49.1438   83.4251   40.8468 H   0  0  0  0  0  0  0  0  0  0  0  0
   46.7401   82.0082   45.5023 C   0  0  0  0  0  0  0  0  0  0  0  0
   45.8110   81.5023   46.6191 C   0  0  0  0  0  0  0  0  0  0  0  0
   45.9849   82.2723   47.9407 C   0  0  0  0  0  0  0  0  0  0  0  0
   45.7881   81.4275   49.2169 C   0  0  0  0  0  0  0  0  0  0  0  0
   44.7760   81.9901   50.1142 N   0  0  0  0  0  0  0  0  0  0  0  0
   43.8310   81.8660   49.6789 H   0  0  0  0  0  0  0  0  0  0  0  0
   44.9460   83.0109   50.2251 H   0  0  0  0  0  0  0  0  0  0  0  0
   48.0948   75.7086   44.9362 C   0  0  0  0  0  0  0  0  0  0  0  0
   48.7432   75.3340   43.9230 O   0  0  0  0  0  0  0  0  0  0  0  0
   46.7837   76.2581   44.7826 N   0  0  0  0  0  0  0  0  0  0  0  0
   46.0543   76.0312   45.4981 H   0  0  0  0  0  0  0  0  0  0  0  0
   48.7681   75.7817   46.2754 C   0  0  0  0  0  0  0  0  0  0  0  0
   47.8000   77.5061   47.8827 C   0  0  0  0  0  0  0  0  0  0  0  0
   47.1965   78.6181   47.8597 O   0  0  0  0  0  0  0  0  0  0  0  0
   48.6440   77.1543   46.7730 N   0  0  0  0  0  0  0  0  0  0  0  0
   48.9029   77.9301   46.1260 H   0  0  0  0  0  0  0  0  0  0  0  0
   47.7085   76.6186   49.1060 C   0  0  0  0  0  0  0  0  0  0  0  0
   46.8589   74.2515   49.4131 C   0  0  0  0  0  0  0  0  0  0  0  0
   48.0359   73.8057   49.5077 O   0  0  0  0  0  0  0  0  0  0  0  0
   46.6462   75.6087   48.9910 N   0  0  0  0  0  0  0  0  0  0  0  0
   45.6981   75.8670   48.6420 H   0  0  0  0  0  0  0  0  0  0  0  0
   45.6723   73.3833   49.7587 C   0  0  0  0  0  0  0  0  0  0  0  0
   45.4298   72.3813   48.6307 C   0  0  0  0  0  0  0  0  0  0  0  0
   44.1453   74.7441   51.2892 C   0  0  0  0  0  0  0  0  0  0  0  0
   44.8406   74.4492   52.2988 O   0  0  0  0  0  0  0  0  0  0  0  0
   44.4545   74.1750   50.0051 N   0  0  0  0  0  0  0  0  0  0  0  0
   43.7923   74.3850   49.2285 H   0  0  0  0  0  0  0  0  0  0  0  0
   42.9856   75.6976   51.4400 C   0  0  0  0  0  0  0  0  0  0  0  0
   42.0189   77.7095   50.2343 C   0  0  0  0  0  0  0  0  0  0  0  0
   42.4242   78.9011   50.3357 O   0  0  0  0  0  0  0  0  0  0  0  0
   42.9749   76.6465   50.3219 N   0  0  0  0  0  0  0  0  0  0  0  0
   43.8813   76.8158   49.8406 H   0  0  0  0  0  0  0  0  0  0  0  0
   40.5643   77.4702   49.8651 C   0  0  0  0  0  0  0  0  0  0  0  0
   41.1242   76.2716   47.7281 C   0  0  0  0  0  0  0  0  0  0  0  0
   41.1106   75.0819   48.1487 O   0  0  0  0  0  0  0  0  0  0  0  0
   40.3777   77.2742   48.4257 N   0  0  0  0  0  0  0  0  0  0  0  0
   39.6715   77.8285   47.8961 H   0  0  0  0  0  0  0  0  0  0  0  0
   42.4135   78.0594   46.6692 N   0  0  0  0  0  0  0  0  0  0  0  0
   41.9973   76.6553   46.5521 C   0  0  0  0  0  0  0  0  0  0  0  0
   42.9028   78.3325   45.7847 H   0  0  0  0  0  0  0  0  0  0  0  0
   41.5575   78.6569   46.7154 H   0  0  0  0  0  0  0  0  0  0  0  0
   43.2153   75.7153   46.4130 C   0  0  0  0  0  0  0  0  0  0  0  0
   43.7996   75.5390   47.6828 O   0  0  0  0  0  0  0  0  0  0  0  0
   42.8394   74.3446   45.8325 C   0  0  0  0  0  0  0  0  0  0  0  0
   44.7017   75.1567   47.5334 H   0  0  0  0  0  0  0  0  0  0  0  0
   39.6567   78.5969   50.3886 C   0  0  0  0  0  0  0  0  0  0  0  0
   38.7011   78.1593   51.5131 C   0  0  0  0  0  0  0  0  0  0  0  0
   39.4011   78.0380   52.8432 C   0  0  0  0  0  0  0  0  0  0  0  0
   40.2370   78.8996   53.2218 O   0  0  0  0  0  0  0  0  0  0  0  0
   39.1019   76.9364   53.6985 N   0  0  0  0  0  0  0  0  0  0  0  0
   39.5648   76.8511   54.6282 H   0  0  0  0  0  0  0  0  0  0  0  0
   38.3800   76.2295   53.4251 H   0  0  0  0  0  0  0  0  0  0  0  0
   42.9089   76.4392   52.8084 C   0  0  0  0  0  0  0  0  0  0  0  0
   44.0622   77.3970   53.1738 C   0  0  0  0  0  0  0  0  0  0  0  0
   43.6764   78.7032   53.8295 C   0  0  0  0  0  0  0  0  0  0  0  0
   43.8102   78.8070   55.0747 O   0  0  0  0  0  0  0  0  0  0  0  0
   43.1243   79.8077   53.1053 N   0  0  0  0  0  0  0  0  0  0  0  0
   42.8178   79.7343   52.1135 H   0  0  0  0  0  0  0  0  0  0  0  0
   42.9057   80.7001   53.6085 H   0  0  0  0  0  0  0  0  0  0  0  0
   47.4908   77.4963   50.3560 C   0  0  0  0  0  0  0  0  0  0  0  0
   48.6628   78.1989   50.6859 O   0  0  0  0  0  0  0  0  0  0  0  0
   48.6418   79.0447   50.1608 H   0  0  0  0  0  0  0  0  0  0  0  0
   50.2459   75.3558   46.2001 C   0  0  0  0  0  0  0  0  0  0  0  0
   50.9450   75.6435   47.4987 C   0  0  0  0  0  0  0  0  0  0  0  0
   51.8469   76.6661   47.7284 C   0  0  0  0  0  0  0  0  0  0  0  0
   52.3113   76.5675   48.9913 N   0  0  0  0  0  0  0  0  0  0  0  0
   51.6765   75.4853   49.4986 C   0  0  0  0  0  0  0  0  0  0  0  0
   50.8338   74.9100   48.6161 N   0  0  0  0  0  0  0  0  0  0  0  0
   50.2553   74.0557   48.7681 H   0  0  0  0  0  0  0  0  0  0  0  0
 95 96  1  0  0  0
 96 91  1  0  0  0
 91 92  2  0  0  0
 91 93  1  0  0  0
 93 90  1  0  0  0
 90103  1  0  0  0
103104  1  0  0  0
104105  1  0  0  0
105106  2  0  0  0
105107  1  0  0  0
 90 86  1  0  0  0
 86 87  2  0  0  0
 86 88  1  0  0  0
 88 85  1  0  0  0
 85110  1  0  0  0
110111  1  0  0  0
111112  1  0  0  0
112113  2  0  0  0
112114  1  0  0  0
 85 81  1  0  0  0
 81 82  2  0  0  0
 81 83  1  0  0  0
 83 79  1  0  0  0
 79 80  1  0  0  0
 79 75  1  0  0  0
 75 76  2  0  0  0
 75 77  1  0  0  0
 77 74  1  0  0  0
 74117  1  0  0  0
117118  1  0  0  0
 74 70  1  0  0  0
 70 71  2  0  0  0
 70 72  1  0  0  0
 72 69  1  0  0  0
 69120  1  0  0  0
120121  1  0  0  0
121122  2  0  0  0
122123  1  0  0  0
123124  2  0  0  0
124125  1  0  0  0
 69 65  1  0  0  0
 65 66  2  0  0  0
 65 67  1  0  0  0
 67  1  1  0  0  0
  1  2  1  0  0  0
  2  3  2  0  0  0
  3  4  1  0  0  0
  4  5  2  0  0  0
  5  6  1  0  0  0
  5  7  1  0  0  0
  7  8  2  0  0  0
  1 10  1  0  0  0
 10 11  2  0  0  0
 10 12  1  0  0  0
 12 14  1  0  0  0
 14 58  1  0  0  0
 58 59  1  0  0  0
 59 60  1  0  0  0
 60 61  1  0  0  0
 61 62  1  0  0  0
 14 15  1  0  0  0
 15 16  2  0  0  0
 15 17  1  0  0  0
 17 19  1  0  0  0
 19 51  1  0  0  0
 51 52  1  0  0  0
 52 53  1  0  0  0
 53 54  2  0  0  0
 53 55  1  0  0  0
 19 20  1  0  0  0
 20 21  2  0  0  0
 20 22  1  0  0  0
 22 24  1  0  0  0
 24 44  1  0  0  0
 44 45  1  0  0  0
 45 46  2  0  0  0
 46 47  1  0  0  0
 47 48  2  0  0  0
 48 49  1  0  0  0
 24 25  1  0  0  0
 25 26  2  0  0  0
 25 27  1  0  0  0
 27 29  1  0  0  0
 29 41  1  0  0  0
 41 42  1  0  0  0
 29 30  1  0  0  0
 30 31  2  0  0  0
 30 32  1  0  0  0
 32 33  1  0  0  0
 33 34  1  0  0  0
 34 35  1  0  0  0
 35 36  1  0  0  0
 36 37  1  0  0  0
 37 38  1  0  0  0
 37 39  2  0  0  0
 96 99  1  0  0  0
 99100  1  0  0  0
 99101  1  0  0  0
125121  1  0  0  0
  8  2  1  0  0  0
 49 45  1  0  0  0
 36 32  1  0  0  0
 95 97  1  0  0  0
 95 98  1  0  0  0
 93 94  1  0  0  0
107108  1  0  0  0
107109  1  0  0  0
 88 89  1  0  0  0
114115  1  0  0  0
114116  1  0  0  0
 83 84  1  0  0  0
 77 78  1  0  0  0
118119  1  0  0  0
 72 73  1  0  0  0
125126  1  0  0  0
 67 68  1  0  0  0
  6  9  1  0  0  0
 12 13  1  0  0  0
 62 63  1  0  0  0
 62 64  1  0  0  0
 17 18  1  0  0  0
 55 56  1  0  0  0
 55 57  1  0  0  0
 22 23  1  0  0  0
 49 50  1  0  0  0
 27 28  1  0  0  0
 42 43  1  0  0  0
 38 40  1  0  0  0
100102  1  0  0  0
M  END
> <minimizedAffinity>
-7.55436

$$$$



126129  0  0  0  0  0  0  0  0999 V2000
   41.2553   68.2470   75.0002 C   0  0  0  0  0  0  0  0  0  0  0  0
   41.5067   69.5696   75.6866 C   0  0  0  0  0  0  0  0  0  0  0  0
   40.6482   70.6651   75.4832 C   0  0  0  0  0  0  0  0  0  0  0  0
   40.8634   71.8670   76.1616 C   0  0  0  0  0  0  0  0  0  0  0  0
   41.9491   71.9989   77.0365 C   0  0  0  0  0  0  0  0  0  0  0  0
   42.1537   73.2019   77.7112 O   0  0  0  0  0  0  0  0  0  0  0  0
   42.8180   70.9188   77.2322 C   0  0  0  0  0  0  0  0  0  0  0  0
   42.5910   69.7091   76.5675 C   0  0  0  0  0  0  0  0  0  0  0  0
   42.9570   73.3354   78.3143 H   0  0  0  0  0  0  0  0  0  0  0  0
   41.1908   68.4256   73.5059 C   0  0  0  0  0  0  0  0  0  0  0  0
   40.1016   68.2802   72.8910 O   0  0  0  0  0  0  0  0  0  0  0  0
   42.3865   68.7212   72.7712 N   0  0  0  0  0  0  0  0  0  0  0  0
   43.0341   69.4274   73.1911 H   0  0  0  0  0  0  0  0  0  0  0  0
   42.9455   67.8636   71.7132 C   0  0  0  0  0  0  0  0  0  0  0  0
   44.0290   66.9930   72.3044 C   0  0  0  0  0  0  0  0  0  0  0  0
   43.7644   66.1884   73.2431 O   0  0  0  0  0  0  0  0  0  0  0  0
   45.3686   67.0938   71.8015 N   0  0  0  0  0  0  0  0  0  0  0  0
   45.5165   67.5990   70.8980 H   0  0  0  0  0  0  0  0  0  0  0  0
   46.5351   66.8703   72.6632 C   0  0  0  0  0  0  0  0  0  0  0  0
   47.6609   66.2709   71.8551 C   0  0  0  0  0  0  0  0  0  0  0  0
   47.4960   66.0599   70.6244 O   0  0  0  0  0  0  0  0  0  0  0  0
   48.9353   66.0037   72.4689 N   0  0  0  0  0  0  0  0  0  0  0  0
   49.0457   66.2666   73.4771 H   0  0  0  0  0  0  0  0  0  0  0  0
   50.1266   65.6632   71.6733 C   0  0  0  0  0  0  0  0  0  0  0  0
   51.0156   64.6641   72.3859 C   0  0  0  0  0  0  0  0  0  0  0  0
   51.9255   64.0758   71.7404 O   0  0  0  0  0  0  0  0  0  0  0  0
   50.7672   64.2555   73.7447 N   0  0  0  0  0  0  0  0  0  0  0  0
   50.9065   63.2376   73.9499 H   0  0  0  0  0  0  0  0  0  0  0  0
   50.6712   65.1474   74.9149 C   0  0  0  0  0  0  0  0  0  0  0  0
   49.3447   64.9938   75.6245 C   0  0  0  0  0  0  0  0  0  0  0  0
   48.3489   65.6582   75.2448 O   0  0  0  0  0  0  0  0  0  0  0  0
   49.2258   64.1974   76.8113 N   0  0  0  0  0  0  0  0  0  0  0  0
   48.8100   62.8059   76.7874 C   0  0  0  0  0  0  0  0  0  0  0  0
   48.3827   62.4809   78.2111 C   0  0  0  0  0  0  0  0  0  0  0  0
   49.0068   63.5671   79.0845 C   0  0  0  0  0  0  0  0  0  0  0  0
   49.2405   64.7598   78.1556 C   0  0  0  0  0  0  0  0  0  0  0  0
   48.1626   65.7959   78.3202 C   0  0  0  0  0  0  0  0  0  0  0  0
   46.8672   65.5099   77.9137 O   0  0  0  0  0  0  0  0  0  0  0  0
   48.4393   66.9300   78.7953 O   0  0  0  0  0  0  0  0  0  0  0  0
   46.1302   66.1988   78.0020 H   0  0  0  0  0  0  0  0  0  0  0  0
   51.8815   64.9673   75.8537 C   0  0  0  0  0  0  0  0  0  0  0  0
   53.3959   64.5152   74.9411 S   0  0  0  0  0  0  0  0  0  0  0  0
   53.3986   65.6518   74.1192 H   0  0  0  0  0  0  0  0  0  0  0  0
   50.9079   66.9493   71.3277 C   0  0  0  0  0  0  0  0  0  0  0  0
   51.4143   67.6669   72.5524 C   0  0  0  0  0  0  0  0  0  0  0  0
   52.7162   67.7117   72.9963 C   0  0  0  0  0  0  0  0  0  0  0  0
   52.7690   68.4180   74.1421 N   0  0  0  0  0  0  0  0  0  0  0  0
   51.4880   68.7771   74.3733 C   0  0  0  0  0  0  0  0  0  0  0  0
   50.6410   68.3365   73.4253 N   0  0  0  0  0  0  0  0  0  0  0  0
   49.6032   68.4500   73.4025 H   0  0  0  0  0  0  0  0  0  0  0  0
   46.9923   68.2035   73.2922 C   0  0  0  0  0  0  0  0  0  0  0  0
   45.9690   68.7596   74.2972 C   0  0  0  0  0  0  0  0  0  0  0  0
   46.1502   68.1421   75.6563 C   0  0  0  0  0  0  0  0  0  0  0  0
   45.2717   67.3633   76.1137 O   0  0  0  0  0  0  0  0  0  0  0  0
   47.3085   68.4400   76.4384 N   0  0  0  0  0  0  0  0  0  0  0  0
   47.4543   67.9765   77.3629 H   0  0  0  0  0  0  0  0  0  0  0  0
   48.0196   69.1291   76.1092 H   0  0  0  0  0  0  0  0  0  0  0  0
   43.4303   68.6555   70.4721 C   0  0  0  0  0  0  0  0  0  0  0  0
   43.1481   67.9149   69.1536 C   0  0  0  0  0  0  0  0  0  0  0  0
   44.4210   67.3515   68.4962 C   0  0  0  0  0  0  0  0  0  0  0  0
   44.8462   68.0568   67.1912 C   0  0  0  0  0  0  0  0  0  0  0  0
   44.4424   69.4645   67.1544 N   0  0  0  0  0  0  0  0  0  0  0  0
   45.0264   70.0023   67.8383 H   0  0  0  0  0  0  0  0  0  0  0  0
   43.4479   69.5433   67.4510 H   0  0  0  0  0  0  0  0  0  0  0  0
   42.0344   66.3097   76.3957 C   0  0  0  0  0  0  0  0  0  0  0  0
   41.5479   66.6764   77.4985 O   0  0  0  0  0  0  0  0  0  0  0  0
   42.2876   67.2738   75.3706 N   0  0  0  0  0  0  0  0  0  0  0  0
   43.1407   67.1641   74.7742 H   0  0  0  0  0  0  0  0  0  0  0  0
   42.1487   64.8486   76.0726 C   0  0  0  0  0  0  0  0  0  0  0  0
   41.7430   63.5073   73.9442 C   0  0  0  0  0  0  0  0  0  0  0  0
   41.6455   63.6820   72.6946 O   0  0  0  0  0  0  0  0  0  0  0  0
   41.4263   64.6011   74.8221 N   0  0  0  0  0  0  0  0  0  0  0  0
   40.9053   65.3981   74.3969 H   0  0  0  0  0  0  0  0  0  0  0  0
   42.0876   62.1394   74.4942 C   0  0  0  0  0  0  0  0  0  0  0  0
   43.6931   60.2139   74.1280 C   0  0  0  0  0  0  0  0  0  0  0  0
   43.6713   59.9186   75.3548 O   0  0  0  0  0  0  0  0  0  0  0  0
   43.0990   61.4449   73.6840 N   0  0  0  0  0  0  0  0  0  0  0  0
   43.3743   61.8078   72.7460 H   0  0  0  0  0  0  0  0  0  0  0  0
   44.3166   59.2799   73.1180 C   0  0  0  0  0  0  0  0  0  0  0  0
   44.6808   57.9622   73.8010 C   0  0  0  0  0  0  0  0  0  0  0  0
   45.8574   59.6053   71.1065 C   0  0  0  0  0  0  0  0  0  0  0  0
   45.2325   58.7320   70.4457 O   0  0  0  0  0  0  0  0  0  0  0  0
   45.5069   59.8654   72.4768 N   0  0  0  0  0  0  0  0  0  0  0  0
   46.1155   60.5323   72.9971 H   0  0  0  0  0  0  0  0  0  0  0  0
   46.9769   60.3734   70.4481 C   0  0  0  0  0  0  0  0  0  0  0  0
   47.3887   61.2207   68.0926 C   0  0  0  0  0  0  0  0  0  0  0  0
   48.3853   60.9447   67.3680 O   0  0  0  0  0  0  0  0  0  0  0  0
   46.8926   60.2222   68.9918 N   0  0  0  0  0  0  0  0  0  0  0  0
   46.8756   59.2509   68.6205 H   0  0  0  0  0  0  0  0  0  0  0  0
   46.6688   62.5386   67.8591 C   0  0  0  0  0  0  0  0  0  0  0  0
   47.7757   64.7729   67.5436 C   0  0  0  0  0  0  0  0  0  0  0  0
   46.8892   65.3472   66.8532 O   0  0  0  0  0  0  0  0  0  0  0  0
   47.4089   63.6828   68.3958 N   0  0  0  0  0  0  0  0  0  0  0  0
   47.6422   63.7426   69.4099 H   0  0  0  0  0  0  0  0  0  0  0  0
   49.4590   66.4794   68.0275 N   0  0  0  0  0  0  0  0  0  0  0  0
   49.2299   65.1701   67.4017 C   0  0  0  0  0  0  0  0  0  0  0  0
   50.4343   66.7859   67.8016 H   0  0  0  0  0  0  0  0  0  0  0  0
   48.8299   67.1793   67.5735 H   0  0  0  0  0  0  0  0  0  0  0  0
   50.1760   64.0946   67.9803 C   0  0  0  0  0  0  0  0  0  0  0  0
   50.3087   63.0540   67.0398 O   0  0  0  0  0  0  0  0  0  0  0  0
   51.5655   64.6522   68.3198 C   0  0  0  0  0  0  0  0  0  0  0  0
   50.6973   62.2796   67.5211 H   0  0  0  0  0  0  0  0  0  0  0  0
   45.2338   62.5034   68.4128 C   0  0  0  0  0  0  0  0  0  0  0  0
   44.9465   63.5792   69.4754 C   0  0  0  0  0  0  0  0  0  0  0  0
   44.4703   62.9847   70.7768 C   0  0  0  0  0  0  0  0  0  0  0  0
   43.6859   62.0004   70.7964 O   0  0  0  0  0  0  0  0  0  0  0  0
   44.9271   63.5346   72.0110 N   0  0  0  0  0  0  0  0  0  0  0  0
   44.6203   63.1211   72.9170 H   0  0  0  0  0  0  0  0  0  0  0  0
   45.6123   64.3258   72.0214 H   0  0  0  0  0  0  0  0  0  0  0  0
   48.4075   60.0384   70.9670 C   0  0  0  0  0  0  0  0  0  0  0  0
   49.1637   61.1320   71.7501 C   0  0  0  0  0  0  0  0  0  0  0  0
   48.4432   61.7405   72.9314 C   0  0  0  0  0  0  0  0  0  0  0  0
   48.0257   62.9215   72.8306 O   0  0  0  0  0  0  0  0  0  0  0  0
   48.2556   61.0511   74.1719 N   0  0  0  0  0  0  0  0  0  0  0  0
   48.7262   60.1493   74.3918 H   0  0  0  0  0  0  0  0  0  0  0  0
   47.7199   61.5119   74.9451 H   0  0  0  0  0  0  0  0  0  0  0  0
   40.8010   61.2943   74.5986 C   0  0  0  0  0  0  0  0  0  0  0  0
   40.0284   61.4105   73.4299 O   0  0  0  0  0  0  0  0  0  0  0  0
   40.3633   60.7156   72.8003 H   0  0  0  0  0  0  0  0  0  0  0  0
   41.6016   63.9640   77.2079 C   0  0  0  0  0  0  0  0  0  0  0  0
   42.6619   63.0193   77.6987 C   0  0  0  0  0  0  0  0  0  0  0  0
   44.0230   63.1435   77.4893 C   0  0  0  0  0  0  0  0  0  0  0  0
   44.6495   62.0741   78.0223 N   0  0  0  0  0  0  0  0  0  0  0  0
   43.6501   61.3260   78.5450 C   0  0  0  0  0  0  0  0  0  0  0  0
   42.4330   61.8811   78.3705 N   0  0  0  0  0  0  0  0  0  0  0  0
   41.5151   61.4827   78.6640 H   0  0  0  0  0  0  0  0  0  0  0  0
 95 96  1  0  0  0
 96 91  1  0  0  0
 91 92  2  0  0  0
 91 93  1  0  0  0
 93 90  1  0  0  0
 90103  1  0  0  0
103104  1  0  0  0
104105  1  0  0  0
105106  2  0  0  0
105107  1  0  0  0
 90 86  1  0  0  0
 86 87  2  0  0  0
 86 88  1  0  0  0
 88 85  1  0  0  0
 85110  1  0  0  0
110111  1  0  0  0
111112  1  0  0  0
112113  2  0  0  0
112114  1  0  0  0
 85 81  1  0  0  0
 81 82  2  0  0  0
 81 83  1  0  0  0
 83 79  1  0  0  0
 79 80  1  0  0  0
 79 75  1  0  0  0
 75 76  2  0  0  0
 75 77  1  0  0  0
 77 74  1  0  0  0
 74117  1  0  0  0
117118  1  0  0  0
 74 70  1  0  0  0
 70 71  2  0  0  0
 70 72  1  0  0  0
 72 69  1  0  0  0
 69120  1  0  0  0
120121  1  0  0  0
121122  2  0  0  0
122123  1  0  0  0
123124  2  0  0  0
124125  1  0  0  0
 69 65  1  0  0  0
 65 66  2  0  0  0
 65 67  1  0  0  0
 67  1  1  0  0  0
  1  2  1  0  0  0
  2  3  2  0  0  0
  3  4  1  0  0  0
  4  5  2  0  0  0
  5  6  1  0  0  0
  5  7  1  0  0  0
  7  8  2  0  0  0
  1 10  1  0  0  0
 10 11  2  0  0  0
 10 12  1  0  0  0
 12 14  1  0  0  0
 14 58  1  0  0  0
 58 59  1  0  0  0
 59 60  1  0  0  0
 60 61  1  0  0  0
 61 62  1  0  0  0
 14 15  1  0  0  0
 15 16  2  0  0  0
 15 17  1  0  0  0
 17 19  1  0  0  0
 19 51  1  0  0  0
 51 52  1  0  0  0
 52 53  1  0  0  0
 53 54  2  0  0  0
 53 55  1  0  0  0
 19 20  1  0  0  0
 20 21  2  0  0  0
 20 22  1  0  0  0
 22 24  1  0  0  0
 24 44  1  0  0  0
 44 45  1  0  0  0
 45 46  2  0  0  0
 46 47  1  0  0  0
 47 48  2  0  0  0
 48 49  1  0  0  0
 24 25  1  0  0  0
 25 26  2  0  0  0
 25 27  1  0  0  0
 27 29  1  0  0  0
 29 41  1  0  0  0
 41 42  1  0  0  0
 29 30  1  0  0  0
 30 31  2  0  0  0
 30 32  1  0  0  0
 32 33  1  0  0  0
 33 34  1  0  0  0
 34 35  1  0  0  0
 35 36  1  0  0  0
 36 37  1  0  0  0
 37 38  1  0  0  0
 37 39  2  0  0  0
 96 99  1  0  0  0
 99100  1  0  0  0
 99101  1  0  0  0
125121  1  0  0  0
  8  2  1  0  0  0
 49 45  1  0  0  0
 36 32  1  0  0  0
 95 97  1  0  0  0
 95 98  1  0  0  0
 93 94  1  0  0  0
107108  1  0  0  0
107109  1  0  0  0
 88 89  1  0  0  0
114115  1  0  0  0
114116  1  0  0  0
 83 84  1  0  0  0
 77 78  1  0  0  0
118119  1  0  0  0
 72 73  1  0  0  0
125126  1  0  0  0
 67 68  1  0  0  0
  6  9  1  0  0  0
 12 13  1  0  0  0
 62 63  1  0  0  0
 62 64  1  0  0  0
 17 18  1  0  0  0
 55 56  1  0  0  0
 55 57  1  0  0  0
 22 23  1  0  0  0
 49 50  1  0  0  0
 27 28  1  0  0  0
 42 43  1  0  0  0
 38 40  1  0  0  0
100102  1  0  0  0
M  END
> <minimizedAffinity>
-7.36456

$$$$



126129  0  0  0  0  0  0  0  0999 V2000
   46.3561   77.3202   44.0563 C   0  0  0  0  0  0  0  0  0  0  0  0
   45.4991   76.7769   42.9364 C   0  0  0  0  0  0  0  0  0  0  0  0
   44.8935   75.5113   43.0373 C   0  0  0  0  0  0  0  0  0  0  0  0
   44.0638   75.0415   42.0165 C   0  0  0  0  0  0  0  0  0  0  0  0
   43.8430   75.8189   40.8726 C   0  0  0  0  0  0  0  0  0  0  0  0
   43.0108   75.3424   39.8604 O   0  0  0  0  0  0  0  0  0  0  0  0
   44.4549   77.0728   40.7569 C   0  0  0  0  0  0  0  0  0  0  0  0
   45.2701   77.5513   41.7879 C   0  0  0  0  0  0  0  0  0  0  0  0
   42.8717   75.8670   39.0046 H   0  0  0  0  0  0  0  0  0  0  0  0
   45.5799   78.3037   44.8925 C   0  0  0  0  0  0  0  0  0  0  0  0
   44.3219   78.2609   44.9270 O   0  0  0  0  0  0  0  0  0  0  0  0
   46.2754   79.3243   45.6214 N   0  0  0  0  0  0  0  0  0  0  0  0
   47.1466   79.0337   46.1224 H   0  0  0  0  0  0  0  0  0  0  0  0
   46.0883   80.7695   45.4123 C   0  0  0  0  0  0  0  0  0  0  0  0
   47.4019   81.3807   44.9854 C   0  0  0  0  0  0  0  0  0  0  0  0
   48.4912   80.7770   45.2034 O   0  0  0  0  0  0  0  0  0  0  0  0
   47.4079   82.6617   44.3399 N   0  0  0  0  0  0  0  0  0  0  0  0
   46.4986   83.0355   43.9834 H   0  0  0  0  0  0  0  0  0  0  0  0
   48.5211   83.6034   44.5042 C   0  0  0  0  0  0  0  0  0  0  0  0
   49.4398   83.5234   43.3088 C   0  0  0  0  0  0  0  0  0  0  0  0
   49.9241   84.5819   42.8278 O   0  0  0  0  0  0  0  0  0  0  0  0
   49.8138   82.2451   42.7626 N   0  0  0  0  0  0  0  0  0  0  0  0
   49.4442   81.3916   43.2449 H   0  0  0  0  0  0  0  0  0  0  0  0
   50.8946   82.1079   41.7719 C   0  0  0  0  0  0  0  0  0  0  0  0
   52.2566   82.3728   42.3811 C   0  0  0  0  0  0  0  0  0  0  0  0
   52.8637   83.4412   42.0969 O   0  0  0  0  0  0  0  0  0  0  0  0
   52.9480   81.3808   43.1641 N   0  0  0  0  0  0  0  0  0  0  0  0
   53.9802   81.3062   43.0013 H   0  0  0  0  0  0  0  0  0  0  0  0
   52.4310   80.7166   44.3747 C   0  0  0  0  0  0  0  0  0  0  0  0
   52.2203   79.2361   44.1505 C   0  0  0  0  0  0  0  0  0  0  0  0
   52.3934   78.4272   45.0955 O   0  0  0  0  0  0  0  0  0  0  0  0
   51.9498   78.7147   42.8422 N   0  0  0  0  0  0  0  0  0  0  0  0
   50.6033   78.4750   42.3530 C   0  0  0  0  0  0  0  0  0  0  0  0
   50.7590   77.5333   41.1679 C   0  0  0  0  0  0  0  0  0  0  0  0
   52.2233   77.6418   40.7477 C   0  0  0  0  0  0  0  0  0  0  0  0
   52.9742   78.1252   41.9897 C   0  0  0  0  0  0  0  0  0  0  0  0
   53.6655   76.9844   42.6847 C   0  0  0  0  0  0  0  0  0  0  0  0
   55.0254   77.0638   42.9485 O   0  0  0  0  0  0  0  0  0  0  0  0
   53.0211   75.9476   42.9980 O   0  0  0  0  0  0  0  0  0  0  0  0
   55.5127   76.3005   43.4019 H   0  0  0  0  0  0  0  0  0  0  0  0
   53.3183   81.0206   45.5991 C   0  0  0  0  0  0  0  0  0  0  0  0
   54.2810   82.5560   45.3840 S   0  0  0  0  0  0  0  0  0  0  0  0
   53.1659   83.3848   45.1916 H   0  0  0  0  0  0  0  0  0  0  0  0
   50.6308   83.0511   40.5783 C   0  0  0  0  0  0  0  0  0  0  0  0
   49.4687   82.6020   39.7302 C   0  0  0  0  0  0  0  0  0  0  0  0
   49.4074   81.4621   38.9615 C   0  0  0  0  0  0  0  0  0  0  0  0
   48.2232   81.4238   38.3206 N   0  0  0  0  0  0  0  0  0  0  0  0
   47.5954   82.5543   38.7093 C   0  0  0  0  0  0  0  0  0  0  0  0
   48.3257   83.2913   39.5658 N   0  0  0  0  0  0  0  0  0  0  0  0
   48.0758   84.2198   39.9731 H   0  0  0  0  0  0  0  0  0  0  0  0
   47.9807   85.0412   44.6559 C   0  0  0  0  0  0  0  0  0  0  0  0
   46.4444   85.0991   44.6055 C   0  0  0  0  0  0  0  0  0  0  0  0
   45.9177   86.2668   45.3930 C   0  0  0  0  0  0  0  0  0  0  0  0
   44.7287   86.2573   45.8099 O   0  0  0  0  0  0  0  0  0  0  0  0
   46.7539   87.3934   45.6644 N   0  0  0  0  0  0  0  0  0  0  0  0
   46.4008   88.1839   46.2486 H   0  0  0  0  0  0  0  0  0  0  0  0
   47.7214   87.4532   45.2781 H   0  0  0  0  0  0  0  0  0  0  0  0
   45.4655   81.4919   46.6340 C   0  0  0  0  0  0  0  0  0  0  0  0
   46.5270   81.9707   47.6394 C   0  0  0  0  0  0  0  0  0  0  0  0
   46.1200   81.7284   49.1041 C   0  0  0  0  0  0  0  0  0  0  0  0
   45.3153   80.4350   49.3506 C   0  0  0  0  0  0  0  0  0  0  0  0
   46.0314   79.4792   50.1990 N   0  0  0  0  0  0  0  0  0  0  0  0
   46.0615   79.8518   51.1779 H   0  0  0  0  0  0  0  0  0  0  0  0
   47.0114   79.3882   49.8606 H   0  0  0  0  0  0  0  0  0  0  0  0
   48.2603   75.8671   44.8110 C   0  0  0  0  0  0  0  0  0  0  0  0
   48.8127   75.6999   43.6911 O   0  0  0  0  0  0  0  0  0  0  0  0
   46.8776   76.2246   44.8794 N   0  0  0  0  0  0  0  0  0  0  0  0
   46.2884   75.8183   45.6432 H   0  0  0  0  0  0  0  0  0  0  0  0
   49.0900   75.9047   46.0609 C   0  0  0  0  0  0  0  0  0  0  0  0
   48.4175   77.6374   47.8044 C   0  0  0  0  0  0  0  0  0  0  0  0
   47.8419   78.7619   47.8785 O   0  0  0  0  0  0  0  0  0  0  0  0
   49.0736   77.2760   46.5771 N   0  0  0  0  0  0  0  0  0  0  0  0
   49.2473   78.0508   45.9011 H   0  0  0  0  0  0  0  0  0  0  0  0
   48.4950   76.7431   49.0237 C   0  0  0  0  0  0  0  0  0  0  0  0
   47.0141   75.5346   50.6868 C   0  0  0  0  0  0  0  0  0  0  0  0
   47.8994   74.6580   50.8887 O   0  0  0  0  0  0  0  0  0  0  0  0
   47.1730   76.4671   49.6047 N   0  0  0  0  0  0  0  0  0  0  0  0
   46.3260   76.9775   49.2737 H   0  0  0  0  0  0  0  0  0  0  0  0
   45.8008   75.6297   51.5811 C   0  0  0  0  0  0  0  0  0  0  0  0
   45.7804   74.4389   52.5387 C   0  0  0  0  0  0  0  0  0  0  0  0
   43.6746   76.8303   50.8302 C   0  0  0  0  0  0  0  0  0  0  0  0
   43.8857   77.7767   51.6362 O   0  0  0  0  0  0  0  0  0  0  0  0
   44.5446   75.6853   50.8132 N   0  0  0  0  0  0  0  0  0  0  0  0
   44.2687   74.8971   50.1900 H   0  0  0  0  0  0  0  0  0  0  0  0
   42.5008   76.9087   49.8853 C   0  0  0  0  0  0  0  0  0  0  0  0
   42.3188   76.4254   47.4015 C   0  0  0  0  0  0  0  0  0  0  0  0
   41.7506   77.1562   46.5427 O   0  0  0  0  0  0  0  0  0  0  0  0
   42.9820   77.0494   48.5072 N   0  0  0  0  0  0  0  0  0  0  0  0
   43.5169   77.9125   48.2820 H   0  0  0  0  0  0  0  0  0  0  0  0
   42.4076   74.9321   47.1339 C   0  0  0  0  0  0  0  0  0  0  0  0
   44.8395   74.3710   47.4313 C   0  0  0  0  0  0  0  0  0  0  0  0
   45.3445   75.4995   47.1785 O   0  0  0  0  0  0  0  0  0  0  0  0
   43.4859   74.2916   47.8904 N   0  0  0  0  0  0  0  0  0  0  0  0
   43.2933   73.8068   48.7928 H   0  0  0  0  0  0  0  0  0  0  0  0
   46.2990   73.1969   45.8594 N   0  0  0  0  0  0  0  0  0  0  0  0
   45.6257   73.1054   47.1619 C   0  0  0  0  0  0  0  0  0  0  0  0
   46.7240   72.2649   45.6424 H   0  0  0  0  0  0  0  0  0  0  0  0
   45.5759   73.3569   45.1221 H   0  0  0  0  0  0  0  0  0  0  0  0
   46.6299   72.8032   48.2964 C   0  0  0  0  0  0  0  0  0  0  0  0
   46.3274   71.5415   48.8456 O   0  0  0  0  0  0  0  0  0  0  0  0
   48.0867   72.8099   47.8120 C   0  0  0  0  0  0  0  0  0  0  0  0
   46.8027   71.4845   49.7134 H   0  0  0  0  0  0  0  0  0  0  0  0
   42.5398   74.6352   45.6301 C   0  0  0  0  0  0  0  0  0  0  0  0
   41.4437   73.7070   45.0767 C   0  0  0  0  0  0  0  0  0  0  0  0
   40.1231   73.9001   45.7786 C   0  0  0  0  0  0  0  0  0  0  0  0
   39.9190   73.4270   46.9270 O   0  0  0  0  0  0  0  0  0  0  0  0
   39.0884   74.6455   45.1395 N   0  0  0  0  0  0  0  0  0  0  0  0
   38.1779   74.8020   45.6216 H   0  0  0  0  0  0  0  0  0  0  0  0
   39.2479   75.0846   44.2029 H   0  0  0  0  0  0  0  0  0  0  0  0
   41.4446   78.0022   50.2271 C   0  0  0  0  0  0  0  0  0  0  0  0
   40.1359   77.5510   50.9088 C   0  0  0  0  0  0  0  0  0  0  0  0
   40.0053   77.8439   52.3860 C   0  0  0  0  0  0  0  0  0  0  0  0
   40.8347   77.3216   53.1724 O   0  0  0  0  0  0  0  0  0  0  0  0
   38.9560   78.6495   52.9329 N   0  0  0  0  0  0  0  0  0  0  0  0
   38.1367   78.9633   52.3731 H   0  0  0  0  0  0  0  0  0  0  0  0
   38.9349   78.8446   53.9619 H   0  0  0  0  0  0  0  0  0  0  0  0
   49.4244   77.3909   50.0712 C   0  0  0  0  0  0  0  0  0  0  0  0
   48.7774   78.4522   50.7277 O   0  0  0  0  0  0  0  0  0  0  0  0
   48.2876   78.0515   51.4966 H   0  0  0  0  0  0  0  0  0  0  0  0
   50.5328   75.4298   45.8080 C   0  0  0  0  0  0  0  0  0  0  0  0
   51.3446   75.5127   47.0696 C   0  0  0  0  0  0  0  0  0  0  0  0
   51.4352   74.5367   48.0450 C   0  0  0  0  0  0  0  0  0  0  0  0
   52.2032   74.9945   49.0553 N   0  0  0  0  0  0  0  0  0  0  0  0
   52.5622   76.2399   48.6661 C   0  0  0  0  0  0  0  0  0  0  0  0
   52.0617   76.5771   47.4595 N   0  0  0  0  0  0  0  0  0  0  0  0
   52.1808   77.4870   46.9642 H   0  0  0  0  0  0  0  0  0  0  0  0
 95 96  1  0  0  0
 96 91  1  0  0  0
 91 92  2  0  0  0
 91 93  1  0  0  0
 93 90  1  0  0  0
 90103  1  0  0  0
103104  1  0  0  0
104105  1  0  0  0
105106  2  0  0  0
105107  1  0  0  0
 90 86  1  0  0  0
 86 87  2  0  0  0
 86 88  1  0  0  0
 88 85  1  0  0  0
 85110  1  0  0  0
110111  1  0  0  0
111112  1  0  0  0
112113  2  0  0  0
112114  1  0  0  0
 85 81  1  0  0  0
 81 82  2  0  0  0
 81 83  1  0  0  0
 83 79  1  0  0  0
 79 80  1  0  0  0
 79 75  1  0  0  0
 75 76  2  0  0  0
 75 77  1  0  0  0
 77 74  1  0  0  0
 74117  1  0  0  0
117118  1  0  0  0
 74 70  1  0  0  0
 70 71  2  0  0  0
 70 72  1  0  0  0
 72 69  1  0  0  0
 69120  1  0  0  0
120121  1  0  0  0
121122  2  0  0  0
122123  1  0  0  0
123124  2  0  0  0
124125  1  0  0  0
 69 65  1  0  0  0
 65 66  2  0  0  0
 65 67  1  0  0  0
 67  1  1  0  0  0
  1  2  1  0  0  0
  2  3  2  0  0  0
  3  4  1  0  0  0
  4  5  2  0  0  0
  5  6  1  0  0  0
  5  7  1  0  0  0
  7  8  2  0  0  0
  1 10  1  0  0  0
 10 11  2  0  0  0
 10 12  1  0  0  0
 12 14  1  0  0  0
 14 58  1  0  0  0
 58 59  1  0  0  0
 59 60  1  0  0  0
 60 61  1  0  0  0
 61 62  1  0  0  0
 14 15  1  0  0  0
 15 16  2  0  0  0
 15 17  1  0  0  0
 17 19  1  0  0  0
 19 51  1  0  0  0
 51 52  1  0  0  0
 52 53  1  0  0  0
 53 54  2  0  0  0
 53 55  1  0  0  0
 19 20  1  0  0  0
 20 21  2  0  0  0
 20 22  1  0  0  0
 22 24  1  0  0  0
 24 44  1  0  0  0
 44 45  1  0  0  0
 45 46  2  0  0  0
 46 47  1  0  0  0
 47 48  2  0  0  0
 48 49  1  0  0  0
 24 25  1  0  0  0
 25 26  2  0  0  0
 25 27  1  0  0  0
 27 29  1  0  0  0
 29 41  1  0  0  0
 41 42  1  0  0  0
 29 30  1  0  0  0
 30 31  2  0  0  0
 30 32  1  0  0  0
 32 33  1  0  0  0
 33 34  1  0  0  0
 34 35  1  0  0  0
 35 36  1  0  0  0
 36 37  1  0  0  0
 37 38  1  0  0  0
 37 39  2  0  0  0
 96 99  1  0  0  0
 99100  1  0  0  0
 99101  1  0  0  0
125121  1  0  0  0
  8  2  1  0  0  0
 49 45  1  0  0  0
 36 32  1  0  0  0
 95 97  1  0  0  0
 95 98  1  0  0  0
 93 94  1  0  0  0
107108  1  0  0  0
107109  1  0  0  0
 88 89  1  0  0  0
114115  1  0  0  0
114116  1  0  0  0
 83 84  1  0  0  0
 77 78  1  0  0  0
118119  1  0  0  0
 72 73  1  0  0  0
125126  1  0  0  0
 67 68  1  0  0  0
  6  9  1  0  0  0
 12 13  1  0  0  0
 62 63  1  0  0  0
 62 64  1  0  0  0
 17 18  1  0  0  0
 55 56  1  0  0  0
 55 57  1  0  0  0
 22 23  1  0  0  0
 49 50  1  0  0  0
 27 28  1  0  0  0
 42 43  1  0  0  0
 38 40  1  0  0  0
100102  1  0  0  0
M  END
> <minimizedAffinity>
-7.26896

$$$$



126129  0  0  0  0  0  0  0  0999 V2000
   41.2999   68.7644   75.4988 C   0  0  0  0  0  0  0  0  0  0  0  0
   41.3293   70.2155   75.9194 C   0  0  0  0  0  0  0  0  0  0  0  0
   40.4317   71.1472   75.3676 C   0  0  0  0  0  0  0  0  0  0  0  0
   40.4364   72.4752   75.8009 C   0  0  0  0  0  0  0  0  0  0  0  0
   41.3497   72.8962   76.7756 C   0  0  0  0  0  0  0  0  0  0  0  0
   41.3446   74.2232   77.2035 O   0  0  0  0  0  0  0  0  0  0  0  0
   42.2576   71.9790   77.3183 C   0  0  0  0  0  0  0  0  0  0  0  0
   42.2396   70.6449   76.8983 C   0  0  0  0  0  0  0  0  0  0  0  0
   42.0248   74.5611   77.8745 H   0  0  0  0  0  0  0  0  0  0  0  0
   41.7909   68.6097   74.0831 C   0  0  0  0  0  0  0  0  0  0  0  0
   41.0228   68.1780   73.1835 O   0  0  0  0  0  0  0  0  0  0  0  0
   43.1555   68.9149   73.7649 N   0  0  0  0  0  0  0  0  0  0  0  0
   43.5557   69.7817   74.1925 H   0  0  0  0  0  0  0  0  0  0  0  0
   44.1200   67.9439   73.2224 C   0  0  0  0  0  0  0  0  0  0  0  0
   45.1454   67.6211   74.2834 C   0  0  0  0  0  0  0  0  0  0  0  0
   45.2157   66.4583   74.7749 O   0  0  0  0  0  0  0  0  0  0  0  0
   46.0347   68.6490   74.7416 N   0  0  0  0  0  0  0  0  0  0  0  0
   46.1006   69.5276   74.1783 H   0  0  0  0  0  0  0  0  0  0  0  0
   46.5362   68.6774   76.1203 C   0  0  0  0  0  0  0  0  0  0  0  0
   47.8163   67.8825   76.2158 C   0  0  0  0  0  0  0  0  0  0  0  0
   48.3765   67.4814   75.1615 O   0  0  0  0  0  0  0  0  0  0  0  0
   48.4291   67.6407   77.4957 N   0  0  0  0  0  0  0  0  0  0  0  0
   47.9641   68.0594   78.3360 H   0  0  0  0  0  0  0  0  0  0  0  0
   49.7928   67.0985   77.6160 C   0  0  0  0  0  0  0  0  0  0  0  0
   49.7861   65.6264   77.9756 C   0  0  0  0  0  0  0  0  0  0  0  0
   49.1759   65.2460   79.0118 O   0  0  0  0  0  0  0  0  0  0  0  0
   50.5730   64.6608   77.2519 N   0  0  0  0  0  0  0  0  0  0  0  0
   51.0435   63.9260   77.8318 H   0  0  0  0  0  0  0  0  0  0  0  0
   50.5111   64.4036   75.8014 C   0  0  0  0  0  0  0  0  0  0  0  0
   51.7071   64.9849   75.0815 C   0  0  0  0  0  0  0  0  0  0  0  0
   52.8690   64.7102   75.4713 O   0  0  0  0  0  0  0  0  0  0  0  0
   51.5453   65.9522   74.0351 N   0  0  0  0  0  0  0  0  0  0  0  0
   51.5002   65.5910   72.6289 C   0  0  0  0  0  0  0  0  0  0  0  0
   51.7755   66.8782   71.8657 C   0  0  0  0  0  0  0  0  0  0  0  0
   51.5103   68.0081   72.8584 C   0  0  0  0  0  0  0  0  0  0  0  0
   51.6836   67.3875   74.2457 C   0  0  0  0  0  0  0  0  0  0  0  0
   53.0305   67.7218   74.8259 C   0  0  0  0  0  0  0  0  0  0  0  0
   53.1156   68.2406   76.1100 O   0  0  0  0  0  0  0  0  0  0  0  0
   54.0751   67.5621   74.1391 O   0  0  0  0  0  0  0  0  0  0  0  0
   54.0114   68.4861   76.5135 H   0  0  0  0  0  0  0  0  0  0  0  0
   50.3025   62.9035   75.5098 C   0  0  0  0  0  0  0  0  0  0  0  0
   49.9078   61.9596   77.0211 S   0  0  0  0  0  0  0  0  0  0  0  0
   48.7643   62.7040   77.3464 H   0  0  0  0  0  0  0  0  0  0  0  0
   50.5898   67.9169   78.6547 C   0  0  0  0  0  0  0  0  0  0  0  0
   50.5293   69.4001   78.3944 C   0  0  0  0  0  0  0  0  0  0  0  0
   50.0492   70.3637   79.2518 C   0  0  0  0  0  0  0  0  0  0  0  0
   50.1254   71.5674   78.6519 N   0  0  0  0  0  0  0  0  0  0  0  0
   50.6424   71.3019   77.4331 C   0  0  0  0  0  0  0  0  0  0  0  0
   50.8991   69.9944   77.2462 N   0  0  0  0  0  0  0  0  0  0  0  0
   51.2604   69.5387   76.3789 H   0  0  0  0  0  0  0  0  0  0  0  0
   46.7888   70.1345   76.5623 C   0  0  0  0  0  0  0  0  0  0  0  0
   45.7628   70.6189   77.6011 C   0  0  0  0  0  0  0  0  0  0  0  0
   46.4186   71.4557   78.6644 C   0  0  0  0  0  0  0  0  0  0  0  0
   46.8822   72.5904   78.3727 O   0  0  0  0  0  0  0  0  0  0  0  0
   46.5287   70.9691   80.0035 N   0  0  0  0  0  0  0  0  0  0  0  0
   46.9448   71.5691   80.7503 H   0  0  0  0  0  0  0  0  0  0  0  0
   46.2089   70.0087   80.2569 H   0  0  0  0  0  0  0  0  0  0  0  0
   44.7668   68.3988   71.8894 C   0  0  0  0  0  0  0  0  0  0  0  0
   44.2696   67.5820   70.6843 C   0  0  0  0  0  0  0  0  0  0  0  0
   43.3810   68.3995   69.7294 C   0  0  0  0  0  0  0  0  0  0  0  0
   43.8603   68.4331   68.2630 C   0  0  0  0  0  0  0  0  0  0  0  0
   45.2746   68.7951   68.1409 N   0  0  0  0  0  0  0  0  0  0  0  0
   45.8591   68.0006   68.4944 H   0  0  0  0  0  0  0  0  0  0  0  0
   45.4682   69.6255   68.7377 H   0  0  0  0  0  0  0  0  0  0  0  0
   41.6327   66.6501   76.8126 C   0  0  0  0  0  0  0  0  0  0  0  0
   40.4453   66.4933   77.2035 O   0  0  0  0  0  0  0  0  0  0  0  0
   42.0916   67.9472   76.4235 N   0  0  0  0  0  0  0  0  0  0  0  0
   43.0706   68.2291   76.6634 H   0  0  0  0  0  0  0  0  0  0  0  0
   42.5017   65.4553   76.5487 C   0  0  0  0  0  0  0  0  0  0  0  0
   42.0742   64.1869   74.3803 C   0  0  0  0  0  0  0  0  0  0  0  0
   41.1402   63.9707   73.5542 O   0  0  0  0  0  0  0  0  0  0  0  0
   41.7342   64.5037   75.7409 N   0  0  0  0  0  0  0  0  0  0  0  0
   40.7526   64.3030   76.0301 H   0  0  0  0  0  0  0  0  0  0  0  0
   43.5172   64.0111   73.9567 C   0  0  0  0  0  0  0  0  0  0  0  0
   45.0305   64.2205   71.9356 C   0  0  0  0  0  0  0  0  0  0  0  0
   46.0613   64.1997   72.6635 O   0  0  0  0  0  0  0  0  0  0  0  0
   43.7352   64.3538   72.5437 N   0  0  0  0  0  0  0  0  0  0  0  0
   42.9424   64.6584   71.9387 H   0  0  0  0  0  0  0  0  0  0  0  0
   45.1396   64.0855   70.4352 C   0  0  0  0  0  0  0  0  0  0  0  0
   44.6879   62.6869   70.0164 C   0  0  0  0  0  0  0  0  0  0  0  0
   46.7818   65.1984   68.8257 C   0  0  0  0  0  0  0  0  0  0  0  0
   45.8375   65.6366   68.1143 O   0  0  0  0  0  0  0  0  0  0  0  0
   46.5062   64.3444   69.9495 N   0  0  0  0  0  0  0  0  0  0  0  0
   47.3301   63.9419   70.4446 H   0  0  0  0  0  0  0  0  0  0  0  0
   48.2028   65.5761   68.4870 C   0  0  0  0  0  0  0  0  0  0  0  0
   49.8342   64.2583   67.0595 C   0  0  0  0  0  0  0  0  0  0  0  0
   51.0830   64.1875   67.2327 O   0  0  0  0  0  0  0  0  0  0  0  0
   48.9842   64.3671   68.2072 N   0  0  0  0  0  0  0  0  0  0  0  0
   49.2544   63.7827   69.0241 H   0  0  0  0  0  0  0  0  0  0  0  0
   49.2876   64.0634   65.6549 C   0  0  0  0  0  0  0  0  0  0  0  0
   49.3387   61.5604   65.8767 C   0  0  0  0  0  0  0  0  0  0  0  0
   48.1833   61.3709   66.3476 O   0  0  0  0  0  0  0  0  0  0  0  0
   49.6026   62.7406   65.1108 N   0  0  0  0  0  0  0  0  0  0  0  0
   49.9821   62.6341   64.1459 H   0  0  0  0  0  0  0  0  0  0  0  0
   51.0447   60.9182   67.5066 N   0  0  0  0  0  0  0  0  0  0  0  0
   50.4611   60.5961   66.1974 C   0  0  0  0  0  0  0  0  0  0  0  0
   51.8960   60.3239   67.6426 H   0  0  0  0  0  0  0  0  0  0  0  0
   51.3888   61.9046   67.4834 H   0  0  0  0  0  0  0  0  0  0  0  0
   49.9881   59.1267   66.1364 C   0  0  0  0  0  0  0  0  0  0  0  0
   48.9551   59.0220   65.1840 O   0  0  0  0  0  0  0  0  0  0  0  0
   51.1198   58.1575   65.7663 C   0  0  0  0  0  0  0  0  0  0  0  0
   48.5041   58.1541   65.3437 H   0  0  0  0  0  0  0  0  0  0  0  0
   49.7635   65.1761   64.7049 C   0  0  0  0  0  0  0  0  0  0  0  0
   49.2757   66.5829   65.0947 C   0  0  0  0  0  0  0  0  0  0  0  0
   47.9140   66.8938   64.5262 C   0  0  0  0  0  0  0  0  0  0  0  0
   47.7775   67.2933   63.3404 O   0  0  0  0  0  0  0  0  0  0  0  0
   46.7550   66.7182   65.3388 N   0  0  0  0  0  0  0  0  0  0  0  0
   45.8069   66.9116   64.9519 H   0  0  0  0  0  0  0  0  0  0  0  0
   46.8383   66.3473   66.3139 H   0  0  0  0  0  0  0  0  0  0  0  0
   48.9185   66.4787   69.5364 C   0  0  0  0  0  0  0  0  0  0  0  0
   48.0920   67.5944   70.2096 C   0  0  0  0  0  0  0  0  0  0  0  0
   48.0376   67.5800   71.7201 C   0  0  0  0  0  0  0  0  0  0  0  0
   48.0695   68.6795   72.3278 O   0  0  0  0  0  0  0  0  0  0  0  0
   47.9977   66.3732   72.4890 N   0  0  0  0  0  0  0  0  0  0  0  0
   48.1503   65.4329   72.0698 H   0  0  0  0  0  0  0  0  0  0  0  0
   47.9284   66.4257   73.5329 H   0  0  0  0  0  0  0  0  0  0  0  0
   43.9565   62.5591   74.2378 C   0  0  0  0  0  0  0  0  0  0  0  0
   42.9480   61.8522   74.9156 O   0  0  0  0  0  0  0  0  0  0  0  0
   42.3498   61.4734   74.2154 H   0  0  0  0  0  0  0  0  0  0  0  0
   42.9902   64.8000   77.8537 C   0  0  0  0  0  0  0  0  0  0  0  0
   44.3876   64.2729   77.6888 C   0  0  0  0  0  0  0  0  0  0  0  0
   44.7867   62.9592   77.8529 C   0  0  0  0  0  0  0  0  0  0  0  0
   46.1231   62.8814   77.6857 N   0  0  0  0  0  0  0  0  0  0  0  0
   46.5028   64.1533   77.4218 C   0  0  0  0  0  0  0  0  0  0  0  0
   45.4672   65.0178   77.4088 N   0  0  0  0  0  0  0  0  0  0  0  0
   45.5134   66.0478   77.2526 H   0  0  0  0  0  0  0  0  0  0  0  0
 95 96  1  0  0  0
 96 91  1  0  0  0
 91 92  2  0  0  0
 91 93  1  0  0  0
 93 90  1  0  0  0
 90103  1  0  0  0
103104  1  0  0  0
104105  1  0  0  0
105106  2  0  0  0
105107  1  0  0  0
 90 86  1  0  0  0
 86 87  2  0  0  0
 86 88  1  0  0  0
 88 85  1  0  0  0
 85110  1  0  0  0
110111  1  0  0  0
111112  1  0  0  0
112113  2  0  0  0
112114  1  0  0  0
 85 81  1  0  0  0
 81 82  2  0  0  0
 81 83  1  0  0  0
 83 79  1  0  0  0
 79 80  1  0  0  0
 79 75  1  0  0  0
 75 76  2  0  0  0
 75 77  1  0  0  0
 77 74  1  0  0  0
 74117  1  0  0  0
117118  1  0  0  0
 74 70  1  0  0  0
 70 71  2  0  0  0
 70 72  1  0  0  0
 72 69  1  0  0  0
 69120  1  0  0  0
120121  1  0  0  0
121122  2  0  0  0
122123  1  0  0  0
123124  2  0  0  0
124125  1  0  0  0
 69 65  1  0  0  0
 65 66  2  0  0  0
 65 67  1  0  0  0
 67  1  1  0  0  0
  1  2  1  0  0  0
  2  3  2  0  0  0
  3  4  1  0  0  0
  4  5  2  0  0  0
  5  6  1  0  0  0
  5  7  1  0  0  0
  7  8  2  0  0  0
  1 10  1  0  0  0
 10 11  2  0  0  0
 10 12  1  0  0  0
 12 14  1  0  0  0
 14 58  1  0  0  0
 58 59  1  0  0  0
 59 60  1  0  0  0
 60 61  1  0  0  0
 61 62  1  0  0  0
 14 15  1  0  0  0
 15 16  2  0  0  0
 15 17  1  0  0  0
 17 19  1  0  0  0
 19 51  1  0  0  0
 51 52  1  0  0  0
 52 53  1  0  0  0
 53 54  2  0  0  0
 53 55  1  0  0  0
 19 20  1  0  0  0
 20 21  2  0  0  0
 20 22  1  0  0  0
 22 24  1  0  0  0
 24 44  1  0  0  0
 44 45  1  0  0  0
 45 46  2  0  0  0
 46 47  1  0  0  0
 47 48  2  0  0  0
 48 49  1  0  0  0
 24 25  1  0  0  0
 25 26  2  0  0  0
 25 27  1  0  0  0
 27 29  1  0  0  0
 29 41  1  0  0  0
 41 42  1  0  0  0
 29 30  1  0  0  0
 30 31  2  0  0  0
 30 32  1  0  0  0
 32 33  1  0  0  0
 33 34  1  0  0  0
 34 35  1  0  0  0
 35 36  1  0  0  0
 36 37  1  0  0  0
 37 38  1  0  0  0
 37 39  2  0  0  0
 96 99  1  0  0  0
 99100  1  0  0  0
 99101  1  0  0  0
125121  1  0  0  0
  8  2  1  0  0  0
 49 45  1  0  0  0
 36 32  1  0  0  0
 95 97  1  0  0  0
 95 98  1  0  0  0
 93 94  1  0  0  0
107108  1  0  0  0
107109  1  0  0  0
 88 89  1  0  0  0
114115  1  0  0  0
114116  1  0  0  0
 83 84  1  0  0  0
 77 78  1  0  0  0
118119  1  0  0  0
 72 73  1  0  0  0
125126  1  0  0  0
 67 68  1  0  0  0
  6  9  1  0  0  0
 12 13  1  0  0  0
 62 63  1  0  0  0
 62 64  1  0  0  0
 17 18  1  0  0  0
 55 56  1  0  0  0
 55 57  1  0  0  0
 22 23  1  0  0  0
 49 50  1  0  0  0
 27 28  1  0  0  0
 42 43  1  0  0  0
 38 40  1  0  0  0
100102  1  0  0  0
M  END
> <minimizedAffinity>
-7.19939

$$$$



126129  0  0  0  0  0  0  0  0999 V2000
   38.9628   91.8907   44.1722 C   0  0  0  0  0  0  0  0  0  0  0  0
   38.3654   92.3957   45.4651 C   0  0  0  0  0  0  0  0  0  0  0  0
   39.1302   93.1580   46.3665 C   0  0  0  0  0  0  0  0  0  0  0  0
   38.5523   93.6605   47.5347 C   0  0  0  0  0  0  0  0  0  0  0  0
   37.2096   93.3925   47.8294 C   0  0  0  0  0  0  0  0  0  0  0  0
   36.6411   93.9010   48.9967 O   0  0  0  0  0  0  0  0  0  0  0  0
   36.4457   92.6209   46.9458 C   0  0  0  0  0  0  0  0  0  0  0  0
   37.0193   92.1342   45.7665 C   0  0  0  0  0  0  0  0  0  0  0  0
   35.6852   93.6834   49.2530 H   0  0  0  0  0  0  0  0  0  0  0  0
   38.6046   92.8023   43.0276 C   0  0  0  0  0  0  0  0  0  0  0  0
   39.1510   93.9311   42.9142 O   0  0  0  0  0  0  0  0  0  0  0  0
   37.6024   92.4009   42.0836 N   0  0  0  0  0  0  0  0  0  0  0  0
   37.6350   91.4076   41.7568 H   0  0  0  0  0  0  0  0  0  0  0  0
   36.3473   93.1315   41.8423 C   0  0  0  0  0  0  0  0  0  0  0  0
   36.4422   94.4989   42.4770 C   0  0  0  0  0  0  0  0  0  0  0  0
   35.9433   94.7119   43.6191 O   0  0  0  0  0  0  0  0  0  0  0  0
   37.0930   95.5626   41.7682 N   0  0  0  0  0  0  0  0  0  0  0  0
   37.6754   95.3133   40.9363 H   0  0  0  0  0  0  0  0  0  0  0  0
   36.6737   96.9606   41.9197 C   0  0  0  0  0  0  0  0  0  0  0  0
   37.6923   97.7144   42.7405 C   0  0  0  0  0  0  0  0  0  0  0  0
   38.7218   97.1164   43.1515 O   0  0  0  0  0  0  0  0  0  0  0  0
   37.5239   99.1209   42.9965 N   0  0  0  0  0  0  0  0  0  0  0  0
   36.6893   99.5888   42.5695 H   0  0  0  0  0  0  0  0  0  0  0  0
   38.6041   99.9433   43.5665 C   0  0  0  0  0  0  0  0  0  0  0  0
   38.1019  100.8471   44.6744 C   0  0  0  0  0  0  0  0  0  0  0  0
   37.6048  101.9682   44.3799 O   0  0  0  0  0  0  0  0  0  0  0  0
   38.3019  100.5316   46.0657 N   0  0  0  0  0  0  0  0  0  0  0  0
   38.5563  101.3366   46.6861 H   0  0  0  0  0  0  0  0  0  0  0  0
   37.8673   99.2980   46.7464 C   0  0  0  0  0  0  0  0  0  0  0  0
   36.4128   98.9918   46.4687 C   0  0  0  0  0  0  0  0  0  0  0  0
   35.7761   99.6764   45.6300 O   0  0  0  0  0  0  0  0  0  0  0  0
   35.7002   98.0137   47.2382 N   0  0  0  0  0  0  0  0  0  0  0  0
   35.5573   96.6312   46.8161 C   0  0  0  0  0  0  0  0  0  0  0  0
   34.4011   96.0708   47.6312 C   0  0  0  0  0  0  0  0  0  0  0  0
   34.2327   97.0237   48.8127 C   0  0  0  0  0  0  0  0  0  0  0  0
   34.8315   98.3555   48.3572 C   0  0  0  0  0  0  0  0  0  0  0  0
   33.7562   99.3178   47.9328 C   0  0  0  0  0  0  0  0  0  0  0  0
   33.7416  100.6042   48.4524 O   0  0  0  0  0  0  0  0  0  0  0  0
   32.8537   98.9493   47.1339 O   0  0  0  0  0  0  0  0  0  0  0  0
   33.0178  101.2626   48.1911 H   0  0  0  0  0  0  0  0  0  0  0  0
   38.8053   98.1191   46.4159 C   0  0  0  0  0  0  0  0  0  0  0  0
   39.9707   97.7681   47.7757 S   0  0  0  0  0  0  0  0  0  0  0  0
   38.9803   97.5348   48.7411 H   0  0  0  0  0  0  0  0  0  0  0  0
   39.2800  100.7649   42.4475 C   0  0  0  0  0  0  0  0  0  0  0  0
   38.3569  101.0331   41.2867 C   0  0  0  0  0  0  0  0  0  0  0  0
   38.5243  100.6029   39.9902 C   0  0  0  0  0  0  0  0  0  0  0  0
   37.5131  101.0725   39.2342 N   0  0  0  0  0  0  0  0  0  0  0  0
   36.7582  101.7904   40.0933 C   0  0  0  0  0  0  0  0  0  0  0  0
   37.2440  101.7855   41.3480 N   0  0  0  0  0  0  0  0  0  0  0  0
   36.8635  102.2967   42.1753 H   0  0  0  0  0  0  0  0  0  0  0  0
   36.5235   97.6218   40.5331 C   0  0  0  0  0  0  0  0  0  0  0  0
   37.4624   97.0033   39.4832 C   0  0  0  0  0  0  0  0  0  0  0  0
   37.1844   97.5551   38.1123 C   0  0  0  0  0  0  0  0  0  0  0  0
   37.8449   97.1396   37.1230 O   0  0  0  0  0  0  0  0  0  0  0  0
   36.1819   98.5559   37.9241 N   0  0  0  0  0  0  0  0  0  0  0  0
   35.9596   98.9063   36.9656 H   0  0  0  0  0  0  0  0  0  0  0  0
   35.6646   98.9610   38.7347 H   0  0  0  0  0  0  0  0  0  0  0  0
   35.0859   92.3525   42.2944 C   0  0  0  0  0  0  0  0  0  0  0  0
   35.1057   90.8835   41.8382 C   0  0  0  0  0  0  0  0  0  0  0  0
   35.6170   89.9228   42.9270 C   0  0  0  0  0  0  0  0  0  0  0  0
   35.6360   88.4334   42.5240 C   0  0  0  0  0  0  0  0  0  0  0  0
   35.3816   88.2332   41.0952 N   0  0  0  0  0  0  0  0  0  0  0  0
   36.2133   88.5683   40.5531 H   0  0  0  0  0  0  0  0  0  0  0  0
   34.5611   88.8063   40.8099 H   0  0  0  0  0  0  0  0  0  0  0  0
   41.1593   91.0192   43.3218 C   0  0  0  0  0  0  0  0  0  0  0  0
   40.7713   89.8753   42.9634 O   0  0  0  0  0  0  0  0  0  0  0  0
   40.4167   91.7515   44.3000 N   0  0  0  0  0  0  0  0  0  0  0  0
   40.9375   92.3282   45.0013 H   0  0  0  0  0  0  0  0  0  0  0  0
   42.2672   91.7052   42.5775 C   0  0  0  0  0  0  0  0  0  0  0  0
   42.2845   90.1163   40.5852 C   0  0  0  0  0  0  0  0  0  0  0  0
   42.5219   88.9024   40.3183 O   0  0  0  0  0  0  0  0  0  0  0  0
   42.9265   90.7119   41.7256 N   0  0  0  0  0  0  0  0  0  0  0  0
   43.7332   90.1872   42.1275 H   0  0  0  0  0  0  0  0  0  0  0  0
   41.4209   90.9425   39.6557 C   0  0  0  0  0  0  0  0  0  0  0  0
   39.0628   90.0487   39.4113 C   0  0  0  0  0  0  0  0  0  0  0  0
   38.7982   90.3237   40.6143 O   0  0  0  0  0  0  0  0  0  0  0  0
   40.4203   90.1313   38.9469 N   0  0  0  0  0  0  0  0  0  0  0  0
   40.6637   89.6335   38.0635 H   0  0  0  0  0  0  0  0  0  0  0  0
   37.9678   89.6549   38.4485 C   0  0  0  0  0  0  0  0  0  0  0  0
   36.8617   90.7089   38.4777 C   0  0  0  0  0  0  0  0  0  0  0  0
   38.1915   87.1201   38.6743 C   0  0  0  0  0  0  0  0  0  0  0  0
   39.3549   87.1471   38.1890 O   0  0  0  0  0  0  0  0  0  0  0  0
   37.4103   88.3252   38.7510 N   0  0  0  0  0  0  0  0  0  0  0  0
   36.4259   88.2247   39.0778 H   0  0  0  0  0  0  0  0  0  0  0  0
   37.6256   85.8130   39.1721 C   0  0  0  0  0  0  0  0  0  0  0  0
   35.4064   84.6305   38.8358 C   0  0  0  0  0  0  0  0  0  0  0  0
   34.6335   84.2283   39.7498 O   0  0  0  0  0  0  0  0  0  0  0  0
   36.1642   85.8269   39.0507 N   0  0  0  0  0  0  0  0  0  0  0  0
   35.6599   86.5982   39.5329 H   0  0  0  0  0  0  0  0  0  0  0  0
   35.3731   83.9155   37.4952 C   0  0  0  0  0  0  0  0  0  0  0  0
   35.3091   85.5659   35.6007 C   0  0  0  0  0  0  0  0  0  0  0  0
   36.2997   85.1554   34.9353 O   0  0  0  0  0  0  0  0  0  0  0  0
   34.6287   84.6645   36.4803 N   0  0  0  0  0  0  0  0  0  0  0  0
   33.6039   84.5228   36.3535 H   0  0  0  0  0  0  0  0  0  0  0  0
   35.0368   87.6390   36.8687 N   0  0  0  0  0  0  0  0  0  0  0  0
   34.9012   87.0228   35.5419 C   0  0  0  0  0  0  0  0  0  0  0  0
   34.6272   88.6018   36.8277 H   0  0  0  0  0  0  0  0  0  0  0  0
   34.4430   87.1072   37.5443 H   0  0  0  0  0  0  0  0  0  0  0  0
   35.7039   87.7991   34.4744 C   0  0  0  0  0  0  0  0  0  0  0  0
   35.3719   87.2945   33.2015 O   0  0  0  0  0  0  0  0  0  0  0  0
   35.4268   89.3087   34.5100 C   0  0  0  0  0  0  0  0  0  0  0  0
   36.0680   87.6170   32.5741 H   0  0  0  0  0  0  0  0  0  0  0  0
   34.8266   82.4839   37.6328 C   0  0  0  0  0  0  0  0  0  0  0  0
   33.7277   82.1329   36.6138 C   0  0  0  0  0  0  0  0  0  0  0  0
   34.2824   81.4598   35.3837 C   0  0  0  0  0  0  0  0  0  0  0  0
   34.8006   82.1284   34.4515 O   0  0  0  0  0  0  0  0  0  0  0  0
   34.2356   80.0383   35.2773 N   0  0  0  0  0  0  0  0  0  0  0  0
   34.6324   79.5598   34.4409 H   0  0  0  0  0  0  0  0  0  0  0  0
   33.8482   79.4574   36.0571 H   0  0  0  0  0  0  0  0  0  0  0  0
   38.0672   85.4020   40.6088 C   0  0  0  0  0  0  0  0  0  0  0  0
   38.8658   84.0914   40.7693 C   0  0  0  0  0  0  0  0  0  0  0  0
   40.0335   83.8902   39.8307 C   0  0  0  0  0  0  0  0  0  0  0  0
   40.1423   82.7844   39.2438 O   0  0  0  0  0  0  0  0  0  0  0  0
   41.0431   84.8821   39.6158 N   0  0  0  0  0  0  0  0  0  0  0  0
   41.1202   85.7423   40.1964 H   0  0  0  0  0  0  0  0  0  0  0  0
   41.8120   84.6986   38.9286 H   0  0  0  0  0  0  0  0  0  0  0  0
   42.3240   91.6900   38.6526 C   0  0  0  0  0  0  0  0  0  0  0  0
   43.0917   92.6713   39.3035 O   0  0  0  0  0  0  0  0  0  0  0  0
   43.9195   92.2174   39.6203 H   0  0  0  0  0  0  0  0  0  0  0  0
   43.2773   92.3678   43.5323 C   0  0  0  0  0  0  0  0  0  0  0  0
   42.6848   93.5999   44.1555 C   0  0  0  0  0  0  0  0  0  0  0  0
   42.7681   93.9584   45.4884 C   0  0  0  0  0  0  0  0  0  0  0  0
   42.0617   95.0911   45.6841 N   0  0  0  0  0  0  0  0  0  0  0  0
   41.5672   95.3937   44.4612 C   0  0  0  0  0  0  0  0  0  0  0  0
   41.9376   94.5093   43.5122 N   0  0  0  0  0  0  0  0  0  0  0  0
   41.6633   94.5188   42.5061 H   0  0  0  0  0  0  0  0  0  0  0  0
 95 96  1  0  0  0
 96 91  1  0  0  0
 91 92  2  0  0  0
 91 93  1  0  0  0
 93 90  1  0  0  0
 90103  1  0  0  0
103104  1  0  0  0
104105  1  0  0  0
105106  2  0  0  0
105107  1  0  0  0
 90 86  1  0  0  0
 86 87  2  0  0  0
 86 88  1  0  0  0
 88 85  1  0  0  0
 85110  1  0  0  0
110111  1  0  0  0
111112  1  0  0  0
112113  2  0  0  0
112114  1  0  0  0
 85 81  1  0  0  0
 81 82  2  0  0  0
 81 83  1  0  0  0
 83 79  1  0  0  0
 79 80  1  0  0  0
 79 75  1  0  0  0
 75 76  2  0  0  0
 75 77  1  0  0  0
 77 74  1  0  0  0
 74117  1  0  0  0
117118  1  0  0  0
 74 70  1  0  0  0
 70 71  2  0  0  0
 70 72  1  0  0  0
 72 69  1  0  0  0
 69120  1  0  0  0
120121  1  0  0  0
121122  2  0  0  0
122123  1  0  0  0
123124  2  0  0  0
124125  1  0  0  0
 69 65  1  0  0  0
 65 66  2  0  0  0
 65 67  1  0  0  0
 67  1  1  0  0  0
  1  2  1  0  0  0
  2  3  2  0  0  0
  3  4  1  0  0  0
  4  5  2  0  0  0
  5  6  1  0  0  0
  5  7  1  0  0  0
  7  8  2  0  0  0
  1 10  1  0  0  0
 10 11  2  0  0  0
 10 12  1  0  0  0
 12 14  1  0  0  0
 14 58  1  0  0  0
 58 59  1  0  0  0
 59 60  1  0  0  0
 60 61  1  0  0  0
 61 62  1  0  0  0
 14 15  1  0  0  0
 15 16  2  0  0  0
 15 17  1  0  0  0
 17 19  1  0  0  0
 19 51  1  0  0  0
 51 52  1  0  0  0
 52 53  1  0  0  0
 53 54  2  0  0  0
 53 55  1  0  0  0
 19 20  1  0  0  0
 20 21  2  0  0  0
 20 22  1  0  0  0
 22 24  1  0  0  0
 24 44  1  0  0  0
 44 45  1  0  0  0
 45 46  2  0  0  0
 46 47  1  0  0  0
 47 48  2  0  0  0
 48 49  1  0  0  0
 24 25  1  0  0  0
 25 26  2  0  0  0
 25 27  1  0  0  0
 27 29  1  0  0  0
 29 41  1  0  0  0
 41 42  1  0  0  0
 29 30  1  0  0  0
 30 31  2  0  0  0
 30 32  1  0  0  0
 32 33  1  0  0  0
 33 34  1  0  0  0
 34 35  1  0  0  0
 35 36  1  0  0  0
 36 37  1  0  0  0
 37 38  1  0  0  0
 37 39  2  0  0  0
 96 99  1  0  0  0
 99100  1  0  0  0
 99101  1  0  0  0
125121  1  0  0  0
  8  2  1  0  0  0
 49 45  1  0  0  0
 36 32  1  0  0  0
 95 97  1  0  0  0
 95 98  1  0  0  0
 93 94  1  0  0  0
107108  1  0  0  0
107109  1  0  0  0
 88 89  1  0  0  0
114115  1  0  0  0
114116  1  0  0  0
 83 84  1  0  0  0
 77 78  1  0  0  0
118119  1  0  0  0
 72 73  1  0  0  0
125126  1  0  0  0
 67 68  1  0  0  0
  6  9  1  0  0  0
 12 13  1  0  0  0
 62 63  1  0  0  0
 62 64  1  0  0  0
 17 18  1  0  0  0
 55 56  1  0  0  0
 55 57  1  0  0  0
 22 23  1  0  0  0
 49 50  1  0  0  0
 27 28  1  0  0  0
 42 43  1  0  0  0
 38 40  1  0  0  0
100102  1  0  0  0
M  END
> <minimizedAffinity>
-7.03534

$$$$



126129  0  0  0  0  0  0  0  0999 V2000
   46.4022   77.4292   44.0382 C   0  0  0  0  0  0  0  0  0  0  0  0
   45.4830   76.8969   42.9633 C   0  0  0  0  0  0  0  0  0  0  0  0
   45.1921   77.6591   41.8175 C   0  0  0  0  0  0  0  0  0  0  0  0
   44.3804   77.1359   40.8081 C   0  0  0  0  0  0  0  0  0  0  0  0
   43.8318   75.8537   40.9373 C   0  0  0  0  0  0  0  0  0  0  0  0
   43.0251   75.3393   39.9230 O   0  0  0  0  0  0  0  0  0  0  0  0
   44.1031   75.0949   42.0821 C   0  0  0  0  0  0  0  0  0  0  0  0
   44.9317   75.6114   43.0837 C   0  0  0  0  0  0  0  0  0  0  0  0
   42.5813   74.4329   40.0141 H   0  0  0  0  0  0  0  0  0  0  0  0
   45.7070   78.4826   44.8606 C   0  0  0  0  0  0  0  0  0  0  0  0
   44.4694   78.4085   45.0804 O   0  0  0  0  0  0  0  0  0  0  0  0
   46.4510   79.6017   45.3613 N   0  0  0  0  0  0  0  0  0  0  0  0
   47.3958   79.3975   45.7613 H   0  0  0  0  0  0  0  0  0  0  0  0
   46.1716   81.0060   45.0187 C   0  0  0  0  0  0  0  0  0  0  0  0
   47.4773   81.7210   44.7633 C   0  0  0  0  0  0  0  0  0  0  0  0
   48.5606   81.2640   45.2283 O   0  0  0  0  0  0  0  0  0  0  0  0
   47.4800   82.9339   43.9975 N   0  0  0  0  0  0  0  0  0  0  0  0
   46.6200   83.1715   43.4521 H   0  0  0  0  0  0  0  0  0  0  0  0
   48.4505   84.0048   44.2517 C   0  0  0  0  0  0  0  0  0  0  0  0
   49.6202   83.8704   43.3066 C   0  0  0  0  0  0  0  0  0  0  0  0
   49.6868   84.6158   42.2935 O   0  0  0  0  0  0  0  0  0  0  0  0
   50.6853   82.9456   43.5937 N   0  0  0  0  0  0  0  0  0  0  0  0
   50.6200   82.4024   44.4873 H   0  0  0  0  0  0  0  0  0  0  0  0
   51.9536   82.9623   42.8458 C   0  0  0  0  0  0  0  0  0  0  0  0
   52.6153   81.5991   42.8246 C   0  0  0  0  0  0  0  0  0  0  0  0
   53.8457   81.5051   43.0853 O   0  0  0  0  0  0  0  0  0  0  0  0
   51.9187   80.4201   42.3774 N   0  0  0  0  0  0  0  0  0  0  0  0
   52.4747   79.7549   41.7892 H   0  0  0  0  0  0  0  0  0  0  0  0
   50.6518   79.9013   42.9248 C   0  0  0  0  0  0  0  0  0  0  0  0
   49.6024   79.7450   41.8473 C   0  0  0  0  0  0  0  0  0  0  0  0
   48.3878   79.6758   42.1592 O   0  0  0  0  0  0  0  0  0  0  0  0
   49.9710   79.5434   40.4761 N   0  0  0  0  0  0  0  0  0  0  0  0
   50.0765   80.6326   39.5208 C   0  0  0  0  0  0  0  0  0  0  0  0
   50.0337   79.9792   38.1473 C   0  0  0  0  0  0  0  0  0  0  0  0
   50.3685   78.5078   38.3827 C   0  0  0  0  0  0  0  0  0  0  0  0
   50.0079   78.2312   39.8433 C   0  0  0  0  0  0  0  0  0  0  0  0
   48.6764   77.5404   39.9527 C   0  0  0  0  0  0  0  0  0  0  0  0
   48.4347   76.6788   41.0131 O   0  0  0  0  0  0  0  0  0  0  0  0
   47.7949   77.7172   39.0694 O   0  0  0  0  0  0  0  0  0  0  0  0
   47.5504   76.1923   41.0969 H   0  0  0  0  0  0  0  0  0  0  0  0
   50.8821   78.6086   43.7339 C   0  0  0  0  0  0  0  0  0  0  0  0
   52.1245   77.5234   42.9534 S   0  0  0  0  0  0  0  0  0  0  0  0
   53.1579   78.4717   42.9718 H   0  0  0  0  0  0  0  0  0  0  0  0
   52.8989   84.0255   43.4459 C   0  0  0  0  0  0  0  0  0  0  0  0
   53.4437   84.9702   42.4057 C   0  0  0  0  0  0  0  0  0  0  0  0
   53.1196   84.9920   41.0684 C   0  0  0  0  0  0  0  0  0  0  0  0
   53.8379   85.9522   40.4546 N   0  0  0  0  0  0  0  0  0  0  0  0
   54.5937   86.4853   41.4384 C   0  0  0  0  0  0  0  0  0  0  0  0
   54.3770   85.9108   42.6355 N   0  0  0  0  0  0  0  0  0  0  0  0
   54.8653   86.1195   43.5346 H   0  0  0  0  0  0  0  0  0  0  0  0
   47.7801   85.3825   44.0649 C   0  0  0  0  0  0  0  0  0  0  0  0
   46.2679   85.3419   44.3437 C   0  0  0  0  0  0  0  0  0  0  0  0
   45.8999   86.2522   45.4826 C   0  0  0  0  0  0  0  0  0  0  0  0
   44.8422   86.0448   46.1351 O   0  0  0  0  0  0  0  0  0  0  0  0
   46.7373   87.3584   45.8251 N   0  0  0  0  0  0  0  0  0  0  0  0
   46.5035   87.9635   46.6437 H   0  0  0  0  0  0  0  0  0  0  0  0
   47.5852   87.5883   45.2620 H   0  0  0  0  0  0  0  0  0  0  0  0
   45.2920   81.7316   46.0686 C   0  0  0  0  0  0  0  0  0  0  0  0
   45.9734   81.8254   47.4446 C   0  0  0  0  0  0  0  0  0  0  0  0
   46.3438   83.2677   47.8349 C   0  0  0  0  0  0  0  0  0  0  0  0
   45.5278   83.8550   49.0056 C   0  0  0  0  0  0  0  0  0  0  0  0
   44.2407   84.4059   48.5744 N   0  0  0  0  0  0  0  0  0  0  0  0
   43.6080   83.6159   48.3035 H   0  0  0  0  0  0  0  0  0  0  0  0
   44.3876   85.0015   47.7336 H   0  0  0  0  0  0  0  0  0  0  0  0
   48.2560   75.9258   44.8196 C   0  0  0  0  0  0  0  0  0  0  0  0
   48.7969   75.7127   43.7018 O   0  0  0  0  0  0  0  0  0  0  0  0
   46.8875   76.3348   44.8848 N   0  0  0  0  0  0  0  0  0  0  0  0
   46.2875   75.9681   45.6601 H   0  0  0  0  0  0  0  0  0  0  0  0
   49.0923   75.9623   46.0651 C   0  0  0  0  0  0  0  0  0  0  0  0
   48.3925   77.6767   47.8159 C   0  0  0  0  0  0  0  0  0  0  0  0
   47.8108   78.7978   47.8933 O   0  0  0  0  0  0  0  0  0  0  0  0
   49.0637   77.3290   46.5928 N   0  0  0  0  0  0  0  0  0  0  0  0
   49.2409   78.1105   45.9253 H   0  0  0  0  0  0  0  0  0  0  0  0
   48.4611   76.7724   49.0283 C   0  0  0  0  0  0  0  0  0  0  0  0
   46.9656   75.5394   50.6599 C   0  0  0  0  0  0  0  0  0  0  0  0
   47.8433   74.6515   50.8451 O   0  0  0  0  0  0  0  0  0  0  0  0
   47.1351   76.4941   49.5992 N   0  0  0  0  0  0  0  0  0  0  0  0
   46.2933   77.0183   49.2770 H   0  0  0  0  0  0  0  0  0  0  0  0
   45.7502   75.6243   51.5525 C   0  0  0  0  0  0  0  0  0  0  0  0
   45.7158   74.4114   52.4815 C   0  0  0  0  0  0  0  0  0  0  0  0
   43.6493   76.8712   50.8056 C   0  0  0  0  0  0  0  0  0  0  0  0
   43.8768   77.8075   51.6189 O   0  0  0  0  0  0  0  0  0  0  0  0
   44.4971   75.7097   50.7823 N   0  0  0  0  0  0  0  0  0  0  0  0
   44.2075   74.9315   50.1528 H   0  0  0  0  0  0  0  0  0  0  0  0
   42.4795   76.9790   49.8587 C   0  0  0  0  0  0  0  0  0  0  0  0
   42.2755   76.4865   47.3785 C   0  0  0  0  0  0  0  0  0  0  0  0
   41.7401   77.2356   46.5144 O   0  0  0  0  0  0  0  0  0  0  0  0
   42.9661   77.0883   48.4796 N   0  0  0  0  0  0  0  0  0  0  0  0
   43.5387   77.9252   48.2483 H   0  0  0  0  0  0  0  0  0  0  0  0
   42.2979   74.9888   47.1216 C   0  0  0  0  0  0  0  0  0  0  0  0
   44.6420   74.1725   47.5160 C   0  0  0  0  0  0  0  0  0  0  0  0
   45.2808   75.2072   47.1786 O   0  0  0  0  0  0  0  0  0  0  0  0
   43.2839   74.2937   47.9520 N   0  0  0  0  0  0  0  0  0  0  0  0
   43.0254   73.9153   48.8881 H   0  0  0  0  0  0  0  0  0  0  0  0
   45.5643   72.5288   45.9580 N   0  0  0  0  0  0  0  0  0  0  0  0
   45.2743   72.8043   47.3716 C   0  0  0  0  0  0  0  0  0  0  0  0
   45.8769   71.5330   45.8742 H   0  0  0  0  0  0  0  0  0  0  0  0
   44.6723   72.5920   45.4174 H   0  0  0  0  0  0  0  0  0  0  0  0
   46.5405   72.6640   48.2454 C   0  0  0  0  0  0  0  0  0  0  0  0
   46.5084   71.4131   48.8930 O   0  0  0  0  0  0  0  0  0  0  0  0
   47.8360   72.7801   47.4297 C   0  0  0  0  0  0  0  0  0  0  0  0
   47.1755   71.4513   49.6249 H   0  0  0  0  0  0  0  0  0  0  0  0
   42.5156   74.6752   45.6311 C   0  0  0  0  0  0  0  0  0  0  0  0
   41.4421   73.7557   45.0218 C   0  0  0  0  0  0  0  0  0  0  0  0
   40.1131   73.8860   45.7223 C   0  0  0  0  0  0  0  0  0  0  0  0
   39.9199   73.3742   46.8559 O   0  0  0  0  0  0  0  0  0  0  0  0
   39.0574   74.6154   45.0995 N   0  0  0  0  0  0  0  0  0  0  0  0
   38.1404   74.7287   45.5813 H   0  0  0  0  0  0  0  0  0  0  0  0
   39.2063   75.0859   44.1764 H   0  0  0  0  0  0  0  0  0  0  0  0
   41.4607   78.1113   50.1876 C   0  0  0  0  0  0  0  0  0  0  0  0
   40.1175   77.7067   50.8304 C   0  0  0  0  0  0  0  0  0  0  0  0
   39.9087   78.1072   52.2730 C   0  0  0  0  0  0  0  0  0  0  0  0
   40.5848   77.5237   53.1570 O   0  0  0  0  0  0  0  0  0  0  0  0
   38.9462   79.0852   52.6807 N   0  0  0  0  0  0  0  0  0  0  0  0
   38.2308   79.4755   52.0335 H   0  0  0  0  0  0  0  0  0  0  0  0
   38.8683   79.3454   53.6924 H   0  0  0  0  0  0  0  0  0  0  0  0
   49.3854   77.4098   50.0865 C   0  0  0  0  0  0  0  0  0  0  0  0
   48.7614   78.5097   50.7004 O   0  0  0  0  0  0  0  0  0  0  0  0
   48.2360   78.1459   51.4640 H   0  0  0  0  0  0  0  0  0  0  0  0
   50.5388   75.5055   45.8002 C   0  0  0  0  0  0  0  0  0  0  0  0
   51.3479   75.5548   47.0653 C   0  0  0  0  0  0  0  0  0  0  0  0
   51.4251   74.5590   48.0216 C   0  0  0  0  0  0  0  0  0  0  0  0
   52.1953   74.9884   49.0426 N   0  0  0  0  0  0  0  0  0  0  0  0
   52.5690   76.2372   48.6788 C   0  0  0  0  0  0  0  0  0  0  0  0
   52.0756   76.6034   47.4778 N   0  0  0  0  0  0  0  0  0  0  0  0
   52.2061   77.5214   47.0007 H   0  0  0  0  0  0  0  0  0  0  0  0
 95 96  1  0  0  0
 96 91  1  0  0  0
 91 92  2  0  0  0
 91 93  1  0  0  0
 93 90  1  0  0  0
 90103  1  0  0  0
103104  1  0  0  0
104105  1  0  0  0
105106  2  0  0  0
105107  1  0  0  0
 90 86  1  0  0  0
 86 87  2  0  0  0
 86 88  1  0  0  0
 88 85  1  0  0  0
 85110  1  0  0  0
110111  1  0  0  0
111112  1  0  0  0
112113  2  0  0  0
112114  1  0  0  0
 85 81  1  0  0  0
 81 82  2  0  0  0
 81 83  1  0  0  0
 83 79  1  0  0  0
 79 80  1  0  0  0
 79 75  1  0  0  0
 75 76  2  0  0  0
 75 77  1  0  0  0
 77 74  1  0  0  0
 74117  1  0  0  0
117118  1  0  0  0
 74 70  1  0  0  0
 70 71  2  0  0  0
 70 72  1  0  0  0
 72 69  1  0  0  0
 69120  1  0  0  0
120121  1  0  0  0
121122  2  0  0  0
122123  1  0  0  0
123124  2  0  0  0
124125  1  0  0  0
 69 65  1  0  0  0
 65 66  2  0  0  0
 65 67  1  0  0  0
 67  1  1  0  0  0
  1  2  1  0  0  0
  2  3  2  0  0  0
  3  4  1  0  0  0
  4  5  2  0  0  0
  5  6  1  0  0  0
  5  7  1  0  0  0
  7  8  2  0  0  0
  1 10  1  0  0  0
 10 11  2  0  0  0
 10 12  1  0  0  0
 12 14  1  0  0  0
 14 58  1  0  0  0
 58 59  1  0  0  0
 59 60  1  0  0  0
 60 61  1  0  0  0
 61 62  1  0  0  0
 14 15  1  0  0  0
 15 16  2  0  0  0
 15 17  1  0  0  0
 17 19  1  0  0  0
 19 51  1  0  0  0
 51 52  1  0  0  0
 52 53  1  0  0  0
 53 54  2  0  0  0
 53 55  1  0  0  0
 19 20  1  0  0  0
 20 21  2  0  0  0
 20 22  1  0  0  0
 22 24  1  0  0  0
 24 44  1  0  0  0
 44 45  1  0  0  0
 45 46  2  0  0  0
 46 47  1  0  0  0
 47 48  2  0  0  0
 48 49  1  0  0  0
 24 25  1  0  0  0
 25 26  2  0  0  0
 25 27  1  0  0  0
 27 29  1  0  0  0
 29 41  1  0  0  0
 41 42  1  0  0  0
 29 30  1  0  0  0
 30 31  2  0  0  0
 30 32  1  0  0  0
 32 33  1  0  0  0
 33 34  1  0  0  0
 34 35  1  0  0  0
 35 36  1  0  0  0
 36 37  1  0  0  0
 37 38  1  0  0  0
 37 39  2  0  0  0
 96 99  1  0  0  0
 99100  1  0  0  0
 99101  1  0  0  0
125121  1  0  0  0
  8  2  1  0  0  0
 49 45  1  0  0  0
 36 32  1  0  0  0
 95 97  1  0  0  0
 95 98  1  0  0  0
 93 94  1  0  0  0
107108  1  0  0  0
107109  1  0  0  0
 88 89  1  0  0  0
114115  1  0  0  0
114116  1  0  0  0
 83 84  1  0  0  0
 77 78  1  0  0  0
118119  1  0  0  0
 72 73  1  0  0  0
125126  1  0  0  0
 67 68  1  0  0  0
  6  9  1  0  0  0
 12 13  1  0  0  0
 62 63  1  0  0  0
 62 64  1  0  0  0
 17 18  1  0  0  0
 55 56  1  0  0  0
 55 57  1  0  0  0
 22 23  1  0  0  0
 49 50  1  0  0  0
 27 28  1  0  0  0
 42 43  1  0  0  0
 38 40  1  0  0  0
100102  1  0  0  0
M  END
> <minimizedAffinity>
-7.00448

$$$$



126129  0  0  0  0  0  0  0  0999 V2000
   41.4427   68.1026   74.7782 C   0  0  0  0  0  0  0  0  0  0  0  0
   41.3824   69.5043   75.3395 C   0  0  0  0  0  0  0  0  0  0  0  0
   40.5734   70.4884   74.7433 C   0  0  0  0  0  0  0  0  0  0  0  0
   40.4883   71.7664   75.3008 C   0  0  0  0  0  0  0  0  0  0  0  0
   41.2245   72.0859   76.4486 C   0  0  0  0  0  0  0  0  0  0  0  0
   41.1306   73.3635   76.9992 O   0  0  0  0  0  0  0  0  0  0  0  0
   42.0448   71.1171   77.0391 C   0  0  0  0  0  0  0  0  0  0  0  0
   42.1147   69.8317   76.4918 C   0  0  0  0  0  0  0  0  0  0  0  0
   41.6874   73.6311   77.8025 H   0  0  0  0  0  0  0  0  0  0  0  0
   41.4206   68.1301   73.2722 C   0  0  0  0  0  0  0  0  0  0  0  0
   40.4473   67.6443   72.6381 O   0  0  0  0  0  0  0  0  0  0  0  0
   42.5356   68.6744   72.5530 N   0  0  0  0  0  0  0  0  0  0  0  0
   42.9464   69.5622   72.9238 H   0  0  0  0  0  0  0  0  0  0  0  0
   43.3636   67.9135   71.6028 C   0  0  0  0  0  0  0  0  0  0  0  0
   44.7458   67.7352   72.1850 C   0  0  0  0  0  0  0  0  0  0  0  0
   44.9752   68.0267   73.3938 O   0  0  0  0  0  0  0  0  0  0  0  0
   45.8048   67.2434   71.3519 N   0  0  0  0  0  0  0  0  0  0  0  0
   45.5473   66.8136   70.4340 H   0  0  0  0  0  0  0  0  0  0  0  0
   47.1984   67.6577   71.5501 C   0  0  0  0  0  0  0  0  0  0  0  0
   47.9814   66.5335   72.1846 C   0  0  0  0  0  0  0  0  0  0  0  0
   49.0694   66.7875   72.7661 O   0  0  0  0  0  0  0  0  0  0  0  0
   47.4588   65.1922   72.1847 N   0  0  0  0  0  0  0  0  0  0  0  0
   46.5148   65.0461   71.7543 H   0  0  0  0  0  0  0  0  0  0  0  0
   48.0562   64.1240   73.0033 C   0  0  0  0  0  0  0  0  0  0  0  0
   47.4322   64.0528   74.3824 C   0  0  0  0  0  0  0  0  0  0  0  0
   46.6326   63.1152   74.6515 O   0  0  0  0  0  0  0  0  0  0  0  0
   47.6099   65.1005   75.3550 N   0  0  0  0  0  0  0  0  0  0  0  0
   46.7628   65.3517   75.9179 H   0  0  0  0  0  0  0  0  0  0  0  0
   48.8999   65.6042   75.8613 C   0  0  0  0  0  0  0  0  0  0  0  0
   48.7505   66.9601   76.5139 C   0  0  0  0  0  0  0  0  0  0  0  0
   48.4786   67.0414   77.7374 O   0  0  0  0  0  0  0  0  0  0  0  0
   48.7854   68.1653   75.7374 N   0  0  0  0  0  0  0  0  0  0  0  0
   49.9970   68.9432   75.5451 C   0  0  0  0  0  0  0  0  0  0  0  0
   49.5335   70.3159   75.0801 C   0  0  0  0  0  0  0  0  0  0  0  0
   48.1019   70.1196   74.5858 C   0  0  0  0  0  0  0  0  0  0  0  0
   47.5866   68.8691   75.3004 C   0  0  0  0  0  0  0  0  0  0  0  0
   46.7157   69.2327   76.4716 C   0  0  0  0  0  0  0  0  0  0  0  0
   47.2703   69.8848   77.5636 O   0  0  0  0  0  0  0  0  0  0  0  0
   45.4950   68.9192   76.4767 O   0  0  0  0  0  0  0  0  0  0  0  0
   46.7045   70.1251   78.3684 H   0  0  0  0  0  0  0  0  0  0  0  0
   49.5830   64.5669   76.7759 C   0  0  0  0  0  0  0  0  0  0  0  0
   51.3897   64.5150   76.5238 S   0  0  0  0  0  0  0  0  0  0  0  0
   51.6046   65.8663   76.8320 H   0  0  0  0  0  0  0  0  0  0  0  0
   49.5832   64.3319   73.0984 C   0  0  0  0  0  0  0  0  0  0  0  0
   50.3624   63.1311   72.6270 C   0  0  0  0  0  0  0  0  0  0  0  0
   50.7898   62.0762   73.4007 C   0  0  0  0  0  0  0  0  0  0  0  0
   51.4854   61.2166   72.6314 N   0  0  0  0  0  0  0  0  0  0  0  0
   51.4729   61.7800   71.4043 C   0  0  0  0  0  0  0  0  0  0  0  0
   50.7984   62.9436   71.3687 N   0  0  0  0  0  0  0  0  0  0  0  0
   50.6831   63.5828   70.5511 H   0  0  0  0  0  0  0  0  0  0  0  0
   47.8343   68.0422   70.1972 C   0  0  0  0  0  0  0  0  0  0  0  0
   47.9580   66.8409   69.2445 C   0  0  0  0  0  0  0  0  0  0  0  0
   47.7806   67.2620   67.8119 C   0  0  0  0  0  0  0  0  0  0  0  0
   47.4943   66.4026   66.9361 O   0  0  0  0  0  0  0  0  0  0  0  0
   47.9439   68.6304   67.4339 N   0  0  0  0  0  0  0  0  0  0  0  0
   47.7773   68.9285   66.4468 H   0  0  0  0  0  0  0  0  0  0  0  0
   48.2413   69.3505   68.1280 H   0  0  0  0  0  0  0  0  0  0  0  0
   43.3923   68.5304   70.1812 C   0  0  0  0  0  0  0  0  0  0  0  0
   43.3418   67.4630   69.0746 C   0  0  0  0  0  0  0  0  0  0  0  0
   44.4476   67.6396   68.0182 C   0  0  0  0  0  0  0  0  0  0  0  0
   44.3059   68.8944   67.1313 C   0  0  0  0  0  0  0  0  0  0  0  0
   45.2926   68.9335   66.0492 N   0  0  0  0  0  0  0  0  0  0  0  0
   45.0512   68.1970   65.3441 H   0  0  0  0  0  0  0  0  0  0  0  0
   46.2332   68.7115   66.4352 H   0  0  0  0  0  0  0  0  0  0  0  0
   42.5023   66.3689   76.2542 C   0  0  0  0  0  0  0  0  0  0  0  0
   41.8058   66.5624   77.2861 O   0  0  0  0  0  0  0  0  0  0  0  0
   42.6315   67.4029   75.2751 N   0  0  0  0  0  0  0  0  0  0  0  0
   43.5525   67.5304   74.7943 H   0  0  0  0  0  0  0  0  0  0  0  0
   43.0189   64.9949   75.9420 C   0  0  0  0  0  0  0  0  0  0  0  0
   44.9973   64.3788   77.4254 C   0  0  0  0  0  0  0  0  0  0  0  0
   46.0028   64.9200   77.9707 O   0  0  0  0  0  0  0  0  0  0  0  0
   44.4548   64.9714   76.2329 N   0  0  0  0  0  0  0  0  0  0  0  0
   45.0594   65.6693   75.7482 H   0  0  0  0  0  0  0  0  0  0  0  0
   44.4494   63.0759   77.9685 C   0  0  0  0  0  0  0  0  0  0  0  0
   44.3770   60.6671   77.1866 C   0  0  0  0  0  0  0  0  0  0  0  0
   45.0552   60.2888   78.1815 O   0  0  0  0  0  0  0  0  0  0  0  0
   44.2376   62.0716   76.9158 N   0  0  0  0  0  0  0  0  0  0  0  0
   43.9360   62.3552   75.9587 H   0  0  0  0  0  0  0  0  0  0  0  0
   43.6924   59.6631   76.2896 C   0  0  0  0  0  0  0  0  0  0  0  0
   43.3497   58.4112   77.0962 C   0  0  0  0  0  0  0  0  0  0  0  0
   44.6659   60.1700   73.9827 C   0  0  0  0  0  0  0  0  0  0  0  0
   43.9620   61.2110   73.8788 O   0  0  0  0  0  0  0  0  0  0  0  0
   44.5164   59.3050   75.1219 N   0  0  0  0  0  0  0  0  0  0  0  0
   45.0593   58.4157   75.1087 H   0  0  0  0  0  0  0  0  0  0  0  0
   45.6646   59.8388   72.9012 C   0  0  0  0  0  0  0  0  0  0  0  0
   45.5599   58.9963   70.5106 C   0  0  0  0  0  0  0  0  0  0  0  0
   45.9627   57.8717   70.1015 O   0  0  0  0  0  0  0  0  0  0  0  0
   45.0027   59.0919   71.8267 N   0  0  0  0  0  0  0  0  0  0  0  0
   44.3861   58.3045   72.1124 H   0  0  0  0  0  0  0  0  0  0  0  0
   45.5390   60.1567   69.5294 C   0  0  0  0  0  0  0  0  0  0  0  0
   47.8467   61.1446   69.4058 C   0  0  0  0  0  0  0  0  0  0  0  0
   48.2269   60.9307   70.5899 O   0  0  0  0  0  0  0  0  0  0  0  0
   46.8184   60.3269   68.8373 N   0  0  0  0  0  0  0  0  0  0  0  0
   47.0170   59.8245   67.9459 H   0  0  0  0  0  0  0  0  0  0  0  0
   48.4948   63.5011   69.4871 N   0  0  0  0  0  0  0  0  0  0  0  0
   48.4052   62.3152   68.6246 C   0  0  0  0  0  0  0  0  0  0  0  0
   48.7579   64.3215   68.8922 H   0  0  0  0  0  0  0  0  0  0  0  0
   47.5416   63.7147   69.8584 H   0  0  0  0  0  0  0  0  0  0  0  0
   49.7707   61.9775   67.9858 C   0  0  0  0  0  0  0  0  0  0  0  0
   50.0152   60.5986   68.1407 O   0  0  0  0  0  0  0  0  0  0  0  0
   49.8301   62.3392   66.4949 C   0  0  0  0  0  0  0  0  0  0  0  0
   50.9797   60.4561   67.9623 H   0  0  0  0  0  0  0  0  0  0  0  0
   45.1051   61.4653   70.2125 C   0  0  0  0  0  0  0  0  0  0  0  0
   44.3509   62.4350   69.2852 C   0  0  0  0  0  0  0  0  0  0  0  0
   45.1128   63.7159   69.0561 C   0  0  0  0  0  0  0  0  0  0  0  0
   45.3920   64.4888   70.0096 O   0  0  0  0  0  0  0  0  0  0  0  0
   45.5409   64.0544   67.7383 N   0  0  0  0  0  0  0  0  0  0  0  0
   46.0844   64.9274   67.5694 H   0  0  0  0  0  0  0  0  0  0  0  0
   45.3580   63.4082   66.9355 H   0  0  0  0  0  0  0  0  0  0  0  0
   46.9510   59.1056   73.3867 C   0  0  0  0  0  0  0  0  0  0  0  0
   48.0159   59.9374   74.1317 C   0  0  0  0  0  0  0  0  0  0  0  0
   48.0263   59.8308   75.6395 C   0  0  0  0  0  0  0  0  0  0  0  0
   48.2749   58.7125   76.1559 O   0  0  0  0  0  0  0  0  0  0  0  0
   47.7219   60.9315   76.5026 N   0  0  0  0  0  0  0  0  0  0  0  0
   47.3335   61.8313   76.1524 H   0  0  0  0  0  0  0  0  0  0  0  0
   47.7763   60.8063   77.5412 H   0  0  0  0  0  0  0  0  0  0  0  0
   43.1348   63.3538   78.7268 C   0  0  0  0  0  0  0  0  0  0  0  0
   43.0989   64.6771   79.2000 O   0  0  0  0  0  0  0  0  0  0  0  0
   42.7216   65.2300   78.4627 H   0  0  0  0  0  0  0  0  0  0  0  0
   42.7477   64.5971   74.4794 C   0  0  0  0  0  0  0  0  0  0  0  0
   41.7658   63.4616   74.4145 C   0  0  0  0  0  0  0  0  0  0  0  0
   41.2235   62.7917   75.4958 C   0  0  0  0  0  0  0  0  0  0  0  0
   40.4348   61.7943   75.0447 N   0  0  0  0  0  0  0  0  0  0  0  0
   40.5170   61.8851   73.6969 C   0  0  0  0  0  0  0  0  0  0  0  0
   41.3120   62.8949   73.2867 N   0  0  0  0  0  0  0  0  0  0  0  0
   41.5471   63.1466   72.3024 H   0  0  0  0  0  0  0  0  0  0  0  0
 95 96  1  0  0  0
 96 91  1  0  0  0
 91 92  2  0  0  0
 91 93  1  0  0  0
 93 90  1  0  0  0
 90103  1  0  0  0
103104  1  0  0  0
104105  1  0  0  0
105106  2  0  0  0
105107  1  0  0  0
 90 86  1  0  0  0
 86 87  2  0  0  0
 86 88  1  0  0  0
 88 85  1  0  0  0
 85110  1  0  0  0
110111  1  0  0  0
111112  1  0  0  0
112113  2  0  0  0
112114  1  0  0  0
 85 81  1  0  0  0
 81 82  2  0  0  0
 81 83  1  0  0  0
 83 79  1  0  0  0
 79 80  1  0  0  0
 79 75  1  0  0  0
 75 76  2  0  0  0
 75 77  1  0  0  0
 77 74  1  0  0  0
 74117  1  0  0  0
117118  1  0  0  0
 74 70  1  0  0  0
 70 71  2  0  0  0
 70 72  1  0  0  0
 72 69  1  0  0  0
 69120  1  0  0  0
120121  1  0  0  0
121122  2  0  0  0
122123  1  0  0  0
123124  2  0  0  0
124125  1  0  0  0
 69 65  1  0  0  0
 65 66  2  0  0  0
 65 67  1  0  0  0
 67  1  1  0  0  0
  1  2  1  0  0  0
  2  3  2  0  0  0
  3  4  1  0  0  0
  4  5  2  0  0  0
  5  6  1  0  0  0
  5  7  1  0  0  0
  7  8  2  0  0  0
  1 10  1  0  0  0
 10 11  2  0  0  0
 10 12  1  0  0  0
 12 14  1  0  0  0
 14 58  1  0  0  0
 58 59  1  0  0  0
 59 60  1  0  0  0
 60 61  1  0  0  0
 61 62  1  0  0  0
 14 15  1  0  0  0
 15 16  2  0  0  0
 15 17  1  0  0  0
 17 19  1  0  0  0
 19 51  1  0  0  0
 51 52  1  0  0  0
 52 53  1  0  0  0
 53 54  2  0  0  0
 53 55  1  0  0  0
 19 20  1  0  0  0
 20 21  2  0  0  0
 20 22  1  0  0  0
 22 24  1  0  0  0
 24 44  1  0  0  0
 44 45  1  0  0  0
 45 46  2  0  0  0
 46 47  1  0  0  0
 47 48  2  0  0  0
 48 49  1  0  0  0
 24 25  1  0  0  0
 25 26  2  0  0  0
 25 27  1  0  0  0
 27 29  1  0  0  0
 29 41  1  0  0  0
 41 42  1  0  0  0
 29 30  1  0  0  0
 30 31  2  0  0  0
 30 32  1  0  0  0
 32 33  1  0  0  0
 33 34  1  0  0  0
 34 35  1  0  0  0
 35 36  1  0  0  0
 36 37  1  0  0  0
 37 38  1  0  0  0
 37 39  2  0  0  0
 96 99  1  0  0  0
 99100  1  0  0  0
 99101  1  0  0  0
125121  1  0  0  0
  8  2  1  0  0  0
 49 45  1  0  0  0
 36 32  1  0  0  0
 95 97  1  0  0  0
 95 98  1  0  0  0
 93 94  1  0  0  0
107108  1  0  0  0
107109  1  0  0  0
 88 89  1  0  0  0
114115  1  0  0  0
114116  1  0  0  0
 83 84  1  0  0  0
 77 78  1  0  0  0
118119  1  0  0  0
 72 73  1  0  0  0
125126  1  0  0  0
 67 68  1  0  0  0
  6  9  1  0  0  0
 12 13  1  0  0  0
 62 63  1  0  0  0
 62 64  1  0  0  0
 17 18  1  0  0  0
 55 56  1  0  0  0
 55 57  1  0  0  0
 22 23  1  0  0  0
 49 50  1  0  0  0
 27 28  1  0  0  0
 42 43  1  0  0  0
 38 40  1  0  0  0
100102  1  0  0  0
M  END
> <minimizedAffinity>
-6.99797

$$$$



126129  0  0  0  0  0  0  0  0999 V2000
   44.9871   68.1431   73.1408 C   0  0  0  0  0  0  0  0  0  0  0  0
   45.2804   67.9938   71.6659 C   0  0  0  0  0  0  0  0  0  0  0  0
   46.6023   67.8803   71.1988 C   0  0  0  0  0  0  0  0  0  0  0  0
   46.8574   67.6932   69.8383 C   0  0  0  0  0  0  0  0  0  0  0  0
   45.7988   67.6371   68.9230 C   0  0  0  0  0  0  0  0  0  0  0  0
   46.0637   67.4473   67.5673 O   0  0  0  0  0  0  0  0  0  0  0  0
   44.4808   67.7656   69.3774 C   0  0  0  0  0  0  0  0  0  0  0  0
   44.2247   67.9334   70.7423 C   0  0  0  0  0  0  0  0  0  0  0  0
   45.3176   67.4480   66.8815 H   0  0  0  0  0  0  0  0  0  0  0  0
   44.3262   66.9020   73.6812 C   0  0  0  0  0  0  0  0  0  0  0  0
   44.5809   65.7737   73.1838 O   0  0  0  0  0  0  0  0  0  0  0  0
   43.3667   67.0099   74.7417 N   0  0  0  0  0  0  0  0  0  0  0  0
   43.6020   67.6629   75.5243 H   0  0  0  0  0  0  0  0  0  0  0  0
   41.9592   66.5917   74.6350 C   0  0  0  0  0  0  0  0  0  0  0  0
   41.7803   65.2734   75.3502 C   0  0  0  0  0  0  0  0  0  0  0  0
   41.3014   64.2736   74.7422 O   0  0  0  0  0  0  0  0  0  0  0  0
   42.1463   65.1649   76.7328 N   0  0  0  0  0  0  0  0  0  0  0  0
   42.7293   65.9277   77.1472 H   0  0  0  0  0  0  0  0  0  0  0  0
   41.4368   64.2663   77.6507 C   0  0  0  0  0  0  0  0  0  0  0  0
   41.7030   62.8301   77.2687 C   0  0  0  0  0  0  0  0  0  0  0  0
   40.7503   62.0064   77.2535 O   0  0  0  0  0  0  0  0  0  0  0  0
   43.0204   62.4177   76.8606 N   0  0  0  0  0  0  0  0  0  0  0  0
   43.7618   63.1568   76.8179 H   0  0  0  0  0  0  0  0  0  0  0  0
   43.2685   61.1047   76.2421 C   0  0  0  0  0  0  0  0  0  0  0  0
   43.3960   60.0067   77.2787 C   0  0  0  0  0  0  0  0  0  0  0  0
   44.3138   60.0743   78.1411 O   0  0  0  0  0  0  0  0  0  0  0  0
   42.5921   58.8124   77.2276 N   0  0  0  0  0  0  0  0  0  0  0  0
   43.0850   57.9179   77.4610 H   0  0  0  0  0  0  0  0  0  0  0  0
   41.1187   58.7585   77.2143 C   0  0  0  0  0  0  0  0  0  0  0  0
   40.5777   58.6688   75.8051 C   0  0  0  0  0  0  0  0  0  0  0  0
   41.3291   58.3074   74.8659 O   0  0  0  0  0  0  0  0  0  0  0  0
   39.2508   59.1126   75.4899 N   0  0  0  0  0  0  0  0  0  0  0  0
   38.1084   58.2163   75.4546 C   0  0  0  0  0  0  0  0  0  0  0  0
   37.0348   58.9511   74.6654 C   0  0  0  0  0  0  0  0  0  0  0  0
   37.4499   60.4207   74.6785 C   0  0  0  0  0  0  0  0  0  0  0  0
   38.9611   60.4204   74.9160 C   0  0  0  0  0  0  0  0  0  0  0  0
   39.7132   60.6252   73.6297 C   0  0  0  0  0  0  0  0  0  0  0  0
   40.5579   61.7177   73.4945 O   0  0  0  0  0  0  0  0  0  0  0  0
   39.5539   59.8275   72.6670 O   0  0  0  0  0  0  0  0  0  0  0  0
   41.0618   61.8819   72.6315 H   0  0  0  0  0  0  0  0  0  0  0  0
   40.5937   57.6374   78.1342 C   0  0  0  0  0  0  0  0  0  0  0  0
   41.9181   56.9184   79.1635 S   0  0  0  0  0  0  0  0  0  0  0  0
   42.2749   58.1260   79.7813 H   0  0  0  0  0  0  0  0  0  0  0  0
   44.5304   61.1760   75.3553 C   0  0  0  0  0  0  0  0  0  0  0  0
   44.5313   60.1371   74.2635 C   0  0  0  0  0  0  0  0  0  0  0  0
   43.7933   60.1680   73.1023 C   0  0  0  0  0  0  0  0  0  0  0  0
   44.0341   59.0473   72.3949 N   0  0  0  0  0  0  0  0  0  0  0  0
   44.9091   58.3537   73.1543 C   0  0  0  0  0  0  0  0  0  0  0  0
   45.2313   58.9893   74.2955 N   0  0  0  0  0  0  0  0  0  0  0  0
   45.8518   58.6410   75.0597 H   0  0  0  0  0  0  0  0  0  0  0  0
   41.8993   64.5182   79.1016 C   0  0  0  0  0  0  0  0  0  0  0  0
   42.2575   63.2159   79.8378 C   0  0  0  0  0  0  0  0  0  0  0  0
   41.1930   62.8424   80.8320 C   0  0  0  0  0  0  0  0  0  0  0  0
   39.9992   62.7075   80.4521 O   0  0  0  0  0  0  0  0  0  0  0  0
   41.5239   62.6482   82.2085 N   0  0  0  0  0  0  0  0  0  0  0  0
   40.7919   62.3460   82.8895 H   0  0  0  0  0  0  0  0  0  0  0  0
   42.4924   62.8142   82.5596 H   0  0  0  0  0  0  0  0  0  0  0  0
   41.4386   66.5517   73.1756 C   0  0  0  0  0  0  0  0  0  0  0  0
   40.9576   67.9277   72.6838 C   0  0  0  0  0  0  0  0  0  0  0  0
   40.0793   68.6608   73.7137 C   0  0  0  0  0  0  0  0  0  0  0  0
   40.7573   69.8580   74.4124 C   0  0  0  0  0  0  0  0  0  0  0  0
   42.1449   70.0485   73.9832 N   0  0  0  0  0  0  0  0  0  0  0  0
   42.1488   70.4010   72.9965 H   0  0  0  0  0  0  0  0  0  0  0  0
   42.6368   69.1315   73.9977 H   0  0  0  0  0  0  0  0  0  0  0  0
   46.1677   68.7100   75.2838 C   0  0  0  0  0  0  0  0  0  0  0  0
   45.3222   69.5228   75.7443 O   0  0  0  0  0  0  0  0  0  0  0  0
   46.2166   68.4494   73.8787 N   0  0  0  0  0  0  0  0  0  0  0  0
   47.1485   68.3071   73.4240 H   0  0  0  0  0  0  0  0  0  0  0  0
   46.9759   67.8561   76.2164 C   0  0  0  0  0  0  0  0  0  0  0  0
   46.1074   65.4875   76.5759 C   0  0  0  0  0  0  0  0  0  0  0  0
   45.0186   64.8428   76.5543 O   0  0  0  0  0  0  0  0  0  0  0  0
   46.0706   66.8974   76.8555 N   0  0  0  0  0  0  0  0  0  0  0  0
   45.1826   67.2646   77.2607 H   0  0  0  0  0  0  0  0  0  0  0  0
   47.4241   64.7583   76.4112 C   0  0  0  0  0  0  0  0  0  0  0  0
   47.7484   64.2046   73.9602 C   0  0  0  0  0  0  0  0  0  0  0  0
   47.6860   65.4243   73.6420 O   0  0  0  0  0  0  0  0  0  0  0  0
   47.4021   63.8012   75.2953 N   0  0  0  0  0  0  0  0  0  0  0  0
   47.1782   62.7957   75.4574 H   0  0  0  0  0  0  0  0  0  0  0  0
   48.2032   63.1666   72.9618 C   0  0  0  0  0  0  0  0  0  0  0  0
   49.6867   63.3702   72.6566 C   0  0  0  0  0  0  0  0  0  0  0  0
   47.7824   64.0352   70.5966 C   0  0  0  0  0  0  0  0  0  0  0  0
   48.7134   64.8784   70.7058 O   0  0  0  0  0  0  0  0  0  0  0  0
   47.4181   63.2089   71.7159 N   0  0  0  0  0  0  0  0  0  0  0  0
   46.5846   62.5957   71.5932 H   0  0  0  0  0  0  0  0  0  0  0  0
   47.0530   63.9017   69.2825 C   0  0  0  0  0  0  0  0  0  0  0  0
   48.3983   64.0321   67.1356 C   0  0  0  0  0  0  0  0  0  0  0  0
   47.9312   64.2142   65.9767 O   0  0  0  0  0  0  0  0  0  0  0  0
   47.7539   64.6669   68.2462 N   0  0  0  0  0  0  0  0  0  0  0  0
   47.4294   65.6412   68.0812 H   0  0  0  0  0  0  0  0  0  0  0  0
   49.7120   63.2808   67.2750 C   0  0  0  0  0  0  0  0  0  0  0  0
   49.7250   60.7680   67.3255 C   0  0  0  0  0  0  0  0  0  0  0  0
   50.7787   60.5534   66.6651 O   0  0  0  0  0  0  0  0  0  0  0  0
   49.5599   62.0186   68.0022 N   0  0  0  0  0  0  0  0  0  0  0  0
   49.3726   62.0096   69.0275 H   0  0  0  0  0  0  0  0  0  0  0  0
   48.0083   59.6551   68.6650 N   0  0  0  0  0  0  0  0  0  0  0  0
   48.6037   59.7506   67.3253 C   0  0  0  0  0  0  0  0  0  0  0  0
   47.3299   58.8576   68.6675 H   0  0  0  0  0  0  0  0  0  0  0  0
   48.7579   59.3914   69.3436 H   0  0  0  0  0  0  0  0  0  0  0  0
   47.5373   60.0746   66.2555 C   0  0  0  0  0  0  0  0  0  0  0  0
   46.7035   61.1006   66.7425 O   0  0  0  0  0  0  0  0  0  0  0  0
   48.1553   60.5135   64.9204 C   0  0  0  0  0  0  0  0  0  0  0  0
   45.8956   61.1111   66.1684 H   0  0  0  0  0  0  0  0  0  0  0  0
   50.7985   64.1591   67.9195 C   0  0  0  0  0  0  0  0  0  0  0  0
   51.5111   63.4980   69.1129 C   0  0  0  0  0  0  0  0  0  0  0  0
   52.3966   64.4653   69.8574 C   0  0  0  0  0  0  0  0  0  0  0  0
   51.9614   65.5797   70.2491 O   0  0  0  0  0  0  0  0  0  0  0  0
   53.7485   64.1087   70.1391 N   0  0  0  0  0  0  0  0  0  0  0  0
   54.3653   64.7603   70.6690 H   0  0  0  0  0  0  0  0  0  0  0  0
   54.1219   63.1712   69.8611 H   0  0  0  0  0  0  0  0  0  0  0  0
   45.5383   64.2656   69.3234 C   0  0  0  0  0  0  0  0  0  0  0  0
   44.5576   63.3520   68.5588 C   0  0  0  0  0  0  0  0  0  0  0  0
   44.2346   62.0202   69.1967 C   0  0  0  0  0  0  0  0  0  0  0  0
   45.0348   61.0670   69.0232 O   0  0  0  0  0  0  0  0  0  0  0  0
   43.0398   61.7835   69.9487 N   0  0  0  0  0  0  0  0  0  0  0  0
   42.2517   62.4624   69.9826 H   0  0  0  0  0  0  0  0  0  0  0  0
   42.8848   60.8485   70.3949 H   0  0  0  0  0  0  0  0  0  0  0  0
   47.7791   64.0447   77.7322 C   0  0  0  0  0  0  0  0  0  0  0  0
   47.0812   64.6127   78.8123 O   0  0  0  0  0  0  0  0  0  0  0  0
   46.2055   64.1412   78.8615 H   0  0  0  0  0  0  0  0  0  0  0  0
   47.7176   68.6986   77.2705 C   0  0  0  0  0  0  0  0  0  0  0  0
   48.7505   67.8683   77.9785 C   0  0  0  0  0  0  0  0  0  0  0  0
   49.9150   67.3707   77.4233 C   0  0  0  0  0  0  0  0  0  0  0  0
   50.5556   66.6207   78.3439 N   0  0  0  0  0  0  0  0  0  0  0  0
   49.7624   66.6834   79.4386 C   0  0  0  0  0  0  0  0  0  0  0  0
   48.6634   67.4420   79.2472 N   0  0  0  0  0  0  0  0  0  0  0  0
   47.8978   67.6194   79.9327 H   0  0  0  0  0  0  0  0  0  0  0  0
 95 96  1  0  0  0
 96 91  1  0  0  0
 91 92  2  0  0  0
 91 93  1  0  0  0
 93 90  1  0  0  0
 90103  1  0  0  0
103104  1  0  0  0
104105  1  0  0  0
105106  2  0  0  0
105107  1  0  0  0
 90 86  1  0  0  0
 86 87  2  0  0  0
 86 88  1  0  0  0
 88 85  1  0  0  0
 85110  1  0  0  0
110111  1  0  0  0
111112  1  0  0  0
112113  2  0  0  0
112114  1  0  0  0
 85 81  1  0  0  0
 81 82  2  0  0  0
 81 83  1  0  0  0
 83 79  1  0  0  0
 79 80  1  0  0  0
 79 75  1  0  0  0
 75 76  2  0  0  0
 75 77  1  0  0  0
 77 74  1  0  0  0
 74117  1  0  0  0
117118  1  0  0  0
 74 70  1  0  0  0
 70 71  2  0  0  0
 70 72  1  0  0  0
 72 69  1  0  0  0
 69120  1  0  0  0
120121  1  0  0  0
121122  2  0  0  0
122123  1  0  0  0
123124  2  0  0  0
124125  1  0  0  0
 69 65  1  0  0  0
 65 66  2  0  0  0
 65 67  1  0  0  0
 67  1  1  0  0  0
  1  2  1  0  0  0
  2  3  2  0  0  0
  3  4  1  0  0  0
  4  5  2  0  0  0
  5  6  1  0  0  0
  5  7  1  0  0  0
  7  8  2  0  0  0
  1 10  1  0  0  0
 10 11  2  0  0  0
 10 12  1  0  0  0
 12 14  1  0  0  0
 14 58  1  0  0  0
 58 59  1  0  0  0
 59 60  1  0  0  0
 60 61  1  0  0  0
 61 62  1  0  0  0
 14 15  1  0  0  0
 15 16  2  0  0  0
 15 17  1  0  0  0
 17 19  1  0  0  0
 19 51  1  0  0  0
 51 52  1  0  0  0
 52 53  1  0  0  0
 53 54  2  0  0  0
 53 55  1  0  0  0
 19 20  1  0  0  0
 20 21  2  0  0  0
 20 22  1  0  0  0
 22 24  1  0  0  0
 24 44  1  0  0  0
 44 45  1  0  0  0
 45 46  2  0  0  0
 46 47  1  0  0  0
 47 48  2  0  0  0
 48 49  1  0  0  0
 24 25  1  0  0  0
 25 26  2  0  0  0
 25 27  1  0  0  0
 27 29  1  0  0  0
 29 41  1  0  0  0
 41 42  1  0  0  0
 29 30  1  0  0  0
 30 31  2  0  0  0
 30 32  1  0  0  0
 32 33  1  0  0  0
 33 34  1  0  0  0
 34 35  1  0  0  0
 35 36  1  0  0  0
 36 37  1  0  0  0
 37 38  1  0  0  0
 37 39  2  0  0  0
 96 99  1  0  0  0
 99100  1  0  0  0
 99101  1  0  0  0
125121  1  0  0  0
  8  2  1  0  0  0
 49 45  1  0  0  0
 36 32  1  0  0  0
 95 97  1  0  0  0
 95 98  1  0  0  0
 93 94  1  0  0  0
107108  1  0  0  0
107109  1  0  0  0
 88 89  1  0  0  0
114115  1  0  0  0
114116  1  0  0  0
 83 84  1  0  0  0
 77 78  1  0  0  0
118119  1  0  0  0
 72 73  1  0  0  0
125126  1  0  0  0
 67 68  1  0  0  0
  6  9  1  0  0  0
 12 13  1  0  0  0
 62 63  1  0  0  0
 62 64  1  0  0  0
 17 18  1  0  0  0
 55 56  1  0  0  0
 55 57  1  0  0  0
 22 23  1  0  0  0
 49 50  1  0  0  0
 27 28  1  0  0  0
 42 43  1  0  0  0
 38 40  1  0  0  0
100102  1  0  0  0
M  END
> <minimizedAffinity>
-6.88910

$$$$
