


126129  0  0  0  0  0  0  0  0999 V2000
   46.7747   73.7587   47.3816 C   0  0  0  0  0  0  0  0  0  0  0  0
   46.8241   73.0488   46.6790 C   0  0  0  0  0  0  0  0  0  0  0  0
   46.6907   73.2872   45.7171 C   0  0  0  0  0  0  0  0  0  0  0  0
   46.7401   72.5773   45.0145 C   0  0  0  0  0  0  0  0  0  0  0  0
   46.9230   71.6290   45.2739 C   0  0  0  0  0  0  0  0  0  0  0  0
   46.9725   70.9192   44.5713 O   0  0  0  0  0  0  0  0  0  0  0  0
   47.0565   71.3906   46.2358 C   0  0  0  0  0  0  0  0  0  0  0  0
   47.0071   72.1005   46.9384 C   0  0  0  0  0  0  0  0  0  0  0  0
   46.8474   71.1426   43.6699 H   0  0  0  0  0  0  0  0  0  0  0  0
   46.0087   73.7736   48.0243 C   0  0  0  0  0  0  0  0  0  0  0  0
   45.8368   72.9858   48.6157 O   0  0  0  0  0  0  0  0  0  0  0  0
   45.4146   74.5763   48.0755 N   0  0  0  0  0  0  0  0  0  0  0  0
   45.5839   75.3520   47.4932 H   0  0  0  0  0  0  0  0  0  0  0  0
   44.6485   74.5913   48.7181 C   0  0  0  0  0  0  0  0  0  0  0  0
   44.7487   75.0420   49.6052 C   0  0  0  0  0  0  0  0  0  0  0  0
   45.1552   75.9540   49.6595 O   0  0  0  0  0  0  0  0  0  0  0  0
   44.4425   74.5806   50.4379 N   0  0  0  0  0  0  0  0  0  0  0  0
   44.0423   73.6827   50.3843 H   0  0  0  0  0  0  0  0  0  0  0  0
   44.5427   75.0313   51.3249 C   0  0  0  0  0  0  0  0  0  0  0  0
   43.7694   75.5217   51.7267 C   0  0  0  0  0  0  0  0  0  0  0  0
   42.9134   75.0392   51.9126 O   0  0  0  0  0  0  0  0  0  0  0  0
   43.8519   76.4947   51.9426 N   0  0  0  0  0  0  0  0  0  0  0  0
   44.6946   76.9697   51.7596 H   0  0  0  0  0  0  0  0  0  0  0  0
   43.0786   76.9851   52.3444 C   0  0  0  0  0  0  0  0  0  0  0  0
   42.4931   77.5543   51.7672 C   0  0  0  0  0  0  0  0  0  0  0  0
   42.8817   78.3332   51.2751 O   0  0  0  0  0  0  0  0  0  0  0  0
   41.5191   77.3445   51.6822 N   0  0  0  0  0  0  0  0  0  0  0  0
   41.1366   76.5777   52.1668 H   0  0  0  0  0  0  0  0  0  0  0  0
   40.9336   77.9137   51.1050 C   0  0  0  0  0  0  0  0  0  0  0  0
   40.4216   78.6730   51.5068 C   0  0  0  0  0  0  0  0  0  0  0  0
   40.5900   79.6088   51.1973 O   0  0  0  0  0  0  0  0  0  0  0  0
   39.7412   78.4963   52.2181 N   0  0  0  0  0  0  0  0  0  0  0  0
   39.5018   77.6007   52.5930 C   0  0  0  0  0  0  0  0  0  0  0  0
   38.7934   77.7352   53.2859 C   0  0  0  0  0  0  0  0  0  0  0  0
   38.5951   78.7138   53.3392 C   0  0  0  0  0  0  0  0  0  0  0  0
   39.1808   79.1842   52.6792 C   0  0  0  0  0  0  0  0  0  0  0  0
   39.2024   80.1695   52.5101 C   0  0  0  0  0  0  0  0  0  0  0  0
   38.5663   80.5787   51.8559 O   0  0  0  0  0  0  0  0  0  0  0  0
   39.8601   80.7459   52.9953 O   0  0  0  0  0  0  0  0  0  0  0  0
   37.9501   80.0387   51.4013 H   0  0  0  0  0  0  0  0  0  0  0  0
   40.8600   77.7237   50.1259 C   0  0  0  0  0  0  0  0  0  0  0  0
   40.4787   76.8540   49.8126 S   0  0  0  0  0  0  0  0  0  0  0  0
   40.0602   75.9295   50.7180 H   0  0  0  0  0  0  0  0  0  0  0  0
   42.8908   76.9063   53.3235 C   0  0  0  0  0  0  0  0  0  0  0  0
   43.2030   77.6192   53.9514 C   0  0  0  0  0  0  0  0  0  0  0  0
   44.1281   77.7150   54.3189 C   0  0  0  0  0  0  0  0  0  0  0  0
   44.1417   78.5164   54.9167 N   0  0  0  0  0  0  0  0  0  0  0  0
   43.2250   78.9160   54.9189 C   0  0  0  0  0  0  0  0  0  0  0  0
   42.6448   78.3614   54.3223 N   0  0  0  0  0  0  0  0  0  0  0  0
   41.6915   78.5187   54.1332 H   0  0  0  0  0  0  0  0  0  0  0  0
   45.4162   74.9916   51.8101 C   0  0  0  0  0  0  0  0  0  0  0  0
   45.7217   74.1323   52.2202 C   0  0  0  0  0  0  0  0  0  0  0  0
   46.4916   74.1287   52.8583 C   0  0  0  0  0  0  0  0  0  0  0  0
   46.3259   74.0485   53.8413 O   0  0  0  0  0  0  0  0  0  0  0  0
   47.4272   74.2054   52.5136 N   0  0  0  0  0  0  0  0  0  0  0  0
   47.5902   74.2844   51.5458 H   0  0  0  0  0  0  0  0  0  0  0  0
   48.1851   74.2019   53.1418 H   0  0  0  0  0  0  0  0  0  0  0  0
   43.7823   74.1555   48.4737 C   0  0  0  0  0  0  0  0  0  0  0  0
   43.1610   74.6037   47.8308 C   0  0  0  0  0  0  0  0  0  0  0  0
   42.3073   74.1556   47.5656 C   0  0  0  0  0  0  0  0  0  0  0  0
   41.6357   74.6472   47.0115 C   0  0  0  0  0  0  0  0  0  0  0  0
   40.6688   74.3965   47.0586 N   0  0  0  0  0  0  0  0  0  0  0  0
   40.3676   73.6392   47.6720 H   0  0  0  0  0  0  0  0  0  0  0  0
   39.9837   74.8980   46.4933 H   0  0  0  0  0  0  0  0  0  0  0  0
   48.1976   74.3840   48.1460 C   0  0  0  0  0  0  0  0  0  0  0  0
   48.1875   73.6194   48.7905 O   0  0  0  0  0  0  0  0  0  0  0  0
   47.4913   74.4536   47.4416 N   0  0  0  0  0  0  0  0  0  0  0  0
   47.5012   75.2063   46.8071 H   0  0  0  0  0  0  0  0  0  0  0  0
   48.9142   75.0790   48.2059 C   0  0  0  0  0  0  0  0  0  0  0  0
   49.9092   75.2846   46.8032 C   0  0  0  0  0  0  0  0  0  0  0  0
   50.3937   74.4378   47.0227 O   0  0  0  0  0  0  0  0  0  0  0  0
   49.1694   75.6052   47.3948 N   0  0  0  0  0  0  0  0  0  0  0  0
   48.6924   76.4389   47.1788 H   0  0  0  0  0  0  0  0  0  0  0  0
   50.1645   75.8109   45.9921 C   0  0  0  0  0  0  0  0  0  0  0  0
   49.7108   75.8033   44.3205 C   0  0  0  0  0  0  0  0  0  0  0  0
   50.6109   75.4413   44.0780 O   0  0  0  0  0  0  0  0  0  0  0  0
   49.4876   75.9881   45.2776 N   0  0  0  0  0  0  0  0  0  0  0  0
   48.6016   76.3445   45.5165 H   0  0  0  0  0  0  0  0  0  0  0  0
   49.0340   75.9805   43.6060 C   0  0  0  0  0  0  0  0  0  0  0  0
   49.2516   75.7810   42.6506 C   0  0  0  0  0  0  0  0  0  0  0  0
   47.3107   75.9808   43.4332 C   0  0  0  0  0  0  0  0  0  0  0  0
   47.3762   75.2277   42.7786 O   0  0  0  0  0  0  0  0  0  0  0  0
   48.1396   76.3572   43.8470 N   0  0  0  0  0  0  0  0  0  0  0  0
   48.0751   77.0986   44.4914 H   0  0  0  0  0  0  0  0  0  0  0  0
   46.4161   76.3575   43.6741 C   0  0  0  0  0  0  0  0  0  0  0  0
   45.8327   76.8990   45.2124 C   0  0  0  0  0  0  0  0  0  0  0  0
   45.3908   76.0136   45.3564 O   0  0  0  0  0  0  0  0  0  0  0  0
   46.3454   77.0709   44.3713 N   0  0  0  0  0  0  0  0  0  0  0  0
   46.7804   77.9426   44.2294 H   0  0  0  0  0  0  0  0  0  0  0  0
   45.7619   77.6124   45.9096 C   0  0  0  0  0  0  0  0  0  0  0  0
   47.0887   78.2282   46.8371 C   0  0  0  0  0  0  0  0  0  0  0  0
   46.9311   77.5245   47.5298 O   0  0  0  0  0  0  0  0  0  0  0  0
   46.5041   78.2722   46.0270 N   0  0  0  0  0  0  0  0  0  0  0  0
   46.6593   78.9650   45.3449 H   0  0  0  0  0  0  0  0  0  0  0  0
   48.7639   78.6433   46.6901 N   0  0  0  0  0  0  0  0  0  0  0  0
   47.8310   78.8880   46.9544 C   0  0  0  0  0  0  0  0  0  0  0  0
   49.5210   79.3163   46.8098 H   0  0  0  0  0  0  0  0  0  0  0  0
   48.9583   77.7208   46.3008 H   0  0  0  0  0  0  0  0  0  0  0  0
   47.6404   79.7924   47.3361 C   0  0  0  0  0  0  0  0  0  0  0  0
   47.1858   79.8752   48.2230 O   0  0  0  0  0  0  0  0  0  0  0  0
   47.9044   80.6140   46.8310 C   0  0  0  0  0  0  0  0  0  0  0  0
   46.9297   79.0781   48.7129 H   0  0  0  0  0  0  0  0  0  0  0  0
   44.9489   77.6661   46.4893 C   0  0  0  0  0  0  0  0  0  0  0  0
   44.2523   78.3609   46.3105 C   0  0  0  0  0  0  0  0  0  0  0  0
   43.5217   78.5191   46.9748 C   0  0  0  0  0  0  0  0  0  0  0  0
   43.2744   77.8019   47.6263 O   0  0  0  0  0  0  0  0  0  0  0  0
   43.0385   79.3945   46.9876 N   0  0  0  0  0  0  0  0  0  0  0  0
   43.2820   80.1005   46.3462 H   0  0  0  0  0  0  0  0  0  0  0  0
   42.3193   79.5502   47.6415 H   0  0  0  0  0  0  0  0  0  0  0  0
   45.5925   76.0208   43.2179 C   0  0  0  0  0  0  0  0  0  0  0  0
   45.1700   76.5582   42.4881 C   0  0  0  0  0  0  0  0  0  0  0  0
   44.4464   76.1570   41.9264 C   0  0  0  0  0  0  0  0  0  0  0  0
   43.8620   75.4381   42.3027 O   0  0  0  0  0  0  0  0  0  0  0  0
   44.3073   76.4746   40.9884 N   0  0  0  0  0  0  0  0  0  0  0  0
   44.8827   77.1824   40.6180 H   0  0  0  0  0  0  0  0  0  0  0  0
   43.5950   76.0796   40.4355 H   0  0  0  0  0  0  0  0  0  0  0  0
   51.0966   76.1599   45.8955 C   0  0  0  0  0  0  0  0  0  0  0  0
   51.3906   76.9543   46.4270 O   0  0  0  0  0  0  0  0  0  0  0  0
   52.2948   77.2928   46.3332 H   0  0  0  0  0  0  0  0  0  0  0  0
   49.3755   75.2477   49.0770 C   0  0  0  0  0  0  0  0  0  0  0  0
   49.2605   76.1255   49.5420 C   0  0  0  0  0  0  0  0  0  0  0  0
   49.9710   76.8157   49.6786 C   0  0  0  0  0  0  0  0  0  0  0  0
   49.5645   77.5841   50.1730 N   0  0  0  0  0  0  0  0  0  0  0  0
   48.6026   77.3687   50.3418 C   0  0  0  0  0  0  0  0  0  0  0  0
   48.4148   76.4672   49.9518 N   0  0  0  0  0  0  0  0  0  0  0  0
   47.5492   75.9984   49.9684 H   0  0  0  0  0  0  0  0  0  0  0  0
 95 96  1  0  0  0
 95 97  1  0  0  0
 95 98  1  0  0  0
 96 91  1  0  0  0
 96 99  1  0  0  0
 91 92  2  0  0  0
 91 93  1  0  0  0
 93 90  1  0  0  0
 93 94  1  0  0  0
 90103  1  0  0  0
 90 86  1  0  0  0
103104  1  0  0  0
104105  1  0  0  0
105106  2  0  0  0
105107  1  0  0  0
107108  1  0  0  0
107109  1  0  0  0
 86 87  2  0  0  0
 86 88  1  0  0  0
 88 85  1  0  0  0
 88 89  1  0  0  0
 85110  1  0  0  0
 85 81  1  0  0  0
110111  1  0  0  0
111112  1  0  0  0
112113  2  0  0  0
112114  1  0  0  0
114115  1  0  0  0
114116  1  0  0  0
 81 82  2  0  0  0
 81 83  1  0  0  0
 83 79  1  0  0  0
 83 84  1  0  0  0
 79 80  1  0  0  0
 79 75  1  0  0  0
 75 76  2  0  0  0
 75 77  1  0  0  0
 77 74  1  0  0  0
 77 78  1  0  0  0
 74117  1  0  0  0
 74 70  1  0  0  0
117118  1  0  0  0
118119  1  0  0  0
 70 71  2  0  0  0
 70 72  1  0  0  0
 72 69  1  0  0  0
 72 73  1  0  0  0
 69120  1  0  0  0
 69 65  1  0  0  0
120121  1  0  0  0
121125  1  0  0  0
121122  2  0  0  0
122123  1  0  0  0
123124  2  0  0  0
124125  1  0  0  0
125126  1  0  0  0
 65 66  2  0  0  0
 65 67  1  0  0  0
 67  1  1  0  0  0
 67 68  1  0  0  0
  1  2  1  0  0  0
  1 10  1  0  0  0
  2  8  2  0  0  0
  2  3  1  0  0  0
  3  4  2  0  0  0
  4  5  1  0  0  0
  5  6  1  0  0  0
  5  7  2  0  0  0
  6  9  1  0  0  0
  7  8  1  0  0  0
 10 11  2  0  0  0
 10 12  1  0  0  0
 12 14  1  0  0  0
 12 13  1  0  0  0
 14 58  1  0  0  0
 14 15  1  0  0  0
 58 59  1  0  0  0
 59 60  1  0  0  0
 60 61  1  0  0  0
 61 62  1  0  0  0
 62 63  1  0  0  0
 62 64  1  0  0  0
 15 16  2  0  0  0
 15 17  1  0  0  0
 17 19  1  0  0  0
 17 18  1  0  0  0
 19 51  1  0  0  0
 19 20  1  0  0  0
 51 52  1  0  0  0
 52 53  1  0  0  0
 53 54  2  0  0  0
 53 55  1  0  0  0
 55 56  1  0  0  0
 55 57  1  0  0  0
 20 21  2  0  0  0
 20 22  1  0  0  0
 22 24  1  0  0  0
 22 23  1  0  0  0
 24 44  1  0  0  0
 24 25  1  0  0  0
 44 45  1  0  0  0
 45 49  1  0  0  0
 45 46  2  0  0  0
 46 47  1  0  0  0
 47 48  2  0  0  0
 48 49  1  0  0  0
 49 50  1  0  0  0
 25 26  2  0  0  0
 25 27  1  0  0  0
 27 29  1  0  0  0
 27 28  1  0  0  0
 29 41  1  0  0  0
 29 30  1  0  0  0
 41 42  1  0  0  0
 42 43  1  0  0  0
 30 31  2  0  0  0
 30 32  1  0  0  0
 32 36  1  0  0  0
 32 33  1  0  0  0
 33 34  1  0  0  0
 34 35  1  0  0  0
 35 36  1  0  0  0
 36 37  1  0  0  0
 37 38  1  0  0  0
 37 39  2  0  0  0
 38 40  1  0  0  0
 99100  1  0  0  0
 99101  1  0  0  0
100102  1  0  0  0
M  END
> <minimizedAffinity>
-7.45573

$$$$



126129  0  0  0  0  0  0  0  0999 V2000
   46.7853   73.6919   47.5649 C   0  0  0  0  0  0  0  0  0  0  0  0
   46.9156   72.8952   46.9748 C   0  0  0  0  0  0  0  0  0  0  0  0
   46.7225   72.9611   45.9958 C   0  0  0  0  0  0  0  0  0  0  0  0
   46.8528   72.1643   45.4057 C   0  0  0  0  0  0  0  0  0  0  0  0
   47.1763   71.3016   45.7946 C   0  0  0  0  0  0  0  0  0  0  0  0
   47.3066   70.5049   45.2045 O   0  0  0  0  0  0  0  0  0  0  0  0
   47.3694   71.2357   46.7735 C   0  0  0  0  0  0  0  0  0  0  0  0
   47.2391   72.0325   47.3636 C   0  0  0  0  0  0  0  0  0  0  0  0
   47.1256   70.5667   44.2872 H   0  0  0  0  0  0  0  0  0  0  0  0
   46.0041   73.7301   48.1880 C   0  0  0  0  0  0  0  0  0  0  0  0
   45.8198   72.9659   48.8061 O   0  0  0  0  0  0  0  0  0  0  0  0
   45.4074   74.5325   48.1932 N   0  0  0  0  0  0  0  0  0  0  0  0
   45.5889   75.2848   47.5847 H   0  0  0  0  0  0  0  0  0  0  0  0
   44.6262   74.5707   48.8164 C   0  0  0  0  0  0  0  0  0  0  0  0
   44.7124   75.0341   49.6983 C   0  0  0  0  0  0  0  0  0  0  0  0
   45.1034   75.9533   49.7440 O   0  0  0  0  0  0  0  0  0  0  0  0
   44.4075   74.5783   50.5345 N   0  0  0  0  0  0  0  0  0  0  0  0
   44.0225   73.6733   50.4895 H   0  0  0  0  0  0  0  0  0  0  0  0
   44.4936   75.0417   51.4165 C   0  0  0  0  0  0  0  0  0  0  0  0
   43.7132   75.5353   51.8002 C   0  0  0  0  0  0  0  0  0  0  0  0
   42.8596   75.0506   51.9906 O   0  0  0  0  0  0  0  0  0  0  0  0
   43.7865   76.5138   51.9936 N   0  0  0  0  0  0  0  0  0  0  0  0
   44.6270   76.9910   51.8061 H   0  0  0  0  0  0  0  0  0  0  0  0
   43.0061   77.0074   52.3773 C   0  0  0  0  0  0  0  0  0  0  0  0
   42.4318   77.5726   51.7852 C   0  0  0  0  0  0  0  0  0  0  0  0
   42.8270   78.3559   51.3053 O   0  0  0  0  0  0  0  0  0  0  0  0
   41.4623   77.3546   51.6730 N   0  0  0  0  0  0  0  0  0  0  0  0
   41.0733   76.5835   52.1455 H   0  0  0  0  0  0  0  0  0  0  0  0
   40.8880   77.9199   51.0808 C   0  0  0  0  0  0  0  0  0  0  0  0
   40.3613   78.6760   51.4691 C   0  0  0  0  0  0  0  0  0  0  0  0
   40.5205   79.6110   51.1522 O   0  0  0  0  0  0  0  0  0  0  0  0
   39.6752   78.4971   52.1744 N   0  0  0  0  0  0  0  0  0  0  0  0
   39.4436   77.6021   52.5555 C   0  0  0  0  0  0  0  0  0  0  0  0
   38.7255   77.7338   53.2389 C   0  0  0  0  0  0  0  0  0  0  0  0
   38.5134   78.7101   53.2801 C   0  0  0  0  0  0  0  0  0  0  0  0
   39.1003   79.1819   52.6222 C   0  0  0  0  0  0  0  0  0  0  0  0
   39.1105   80.1657   52.4435 C   0  0  0  0  0  0  0  0  0  0  0  0
   39.7705   80.7524   52.9128 O   0  0  0  0  0  0  0  0  0  0  0  0
   38.4607   80.5630   51.7953 O   0  0  0  0  0  0  0  0  0  0  0  0
   40.3793   80.3802   53.5201 H   0  0  0  0  0  0  0  0  0  0  0  0
   40.8405   77.7290   50.1003 C   0  0  0  0  0  0  0  0  0  0  0  0
   40.4270   76.8782   49.7760 S   0  0  0  0  0  0  0  0  0  0  0  0
   39.9292   75.9807   50.6684 H   0  0  0  0  0  0  0  0  0  0  0  0
   42.8000   76.9358   53.3533 C   0  0  0  0  0  0  0  0  0  0  0  0
   43.0957   77.6559   53.9809 C   0  0  0  0  0  0  0  0  0  0  0  0
   44.0047   77.7438   54.3884 C   0  0  0  0  0  0  0  0  0  0  0  0
   44.0051   78.5568   54.9706 N   0  0  0  0  0  0  0  0  0  0  0  0
   43.0963   78.9715   54.9229 C   0  0  0  0  0  0  0  0  0  0  0  0
   42.5343   78.4147   54.3112 N   0  0  0  0  0  0  0  0  0  0  0  0
   41.5935   78.5839   54.0757 H   0  0  0  0  0  0  0  0  0  0  0  0
   45.3602   75.0114   51.9146 C   0  0  0  0  0  0  0  0  0  0  0  0
   45.7160   74.1377   52.2463 C   0  0  0  0  0  0  0  0  0  0  0  0
   46.5057   74.1199   52.8596 C   0  0  0  0  0  0  0  0  0  0  0  0
   46.3729   73.9875   53.8419 O   0  0  0  0  0  0  0  0  0  0  0  0
   47.4280   74.2344   52.4906 N   0  0  0  0  0  0  0  0  0  0  0  0
   47.5587   74.3647   51.5235 H   0  0  0  0  0  0  0  0  0  0  0  0
   48.2054   74.2168   53.0944 H   0  0  0  0  0  0  0  0  0  0  0  0
   43.7589   74.1455   48.5576 C   0  0  0  0  0  0  0  0  0  0  0  0
   43.1917   74.5598   47.8456 C   0  0  0  0  0  0  0  0  0  0  0  0
   42.2497   74.2511   47.7141 C   0  0  0  0  0  0  0  0  0  0  0  0
   41.6610   74.7110   47.0493 C   0  0  0  0  0  0  0  0  0  0  0  0
   40.6899   74.4783   46.9962 N   0  0  0  0  0  0  0  0  0  0  0  0
   40.2999   73.7719   47.6201 H   0  0  0  0  0  0  0  0  0  0  0  0
   40.0895   74.9474   46.3181 H   0  0  0  0  0  0  0  0  0  0  0  0
   48.1243   74.5504   48.2503 C   0  0  0  0  0  0  0  0  0  0  0  0
   48.1618   73.8918   49.0020 O   0  0  0  0  0  0  0  0  0  0  0  0
   47.4361   74.4504   47.5318 N   0  0  0  0  0  0  0  0  0  0  0  0
   47.3991   75.0987   46.7918 H   0  0  0  0  0  0  0  0  0  0  0  0
   48.7751   75.3089   48.2172 C   0  0  0  0  0  0  0  0  0  0  0  0
   49.6944   75.6036   46.7791 C   0  0  0  0  0  0  0  0  0  0  0  0
   50.3405   74.8885   47.0456 O   0  0  0  0  0  0  0  0  0  0  0  0
   48.9117   75.8138   47.3649 N   0  0  0  0  0  0  0  0  0  0  0  0
   48.2754   76.5179   47.1026 H   0  0  0  0  0  0  0  0  0  0  0  0
   49.8309   76.1085   45.9268 C   0  0  0  0  0  0  0  0  0  0  0  0
   49.5663   77.8163   45.8120 C   0  0  0  0  0  0  0  0  0  0  0  0
   50.4934   77.9825   46.1481 O   0  0  0  0  0  0  0  0  0  0  0  0
   49.2351   76.8793   45.7013 N   0  0  0  0  0  0  0  0  0  0  0  0
   48.3224   76.7156   45.3705 H   0  0  0  0  0  0  0  0  0  0  0  0
   48.9705   78.5872   45.5865 C   0  0  0  0  0  0  0  0  0  0  0  0
   49.3208   79.5222   45.6403 C   0  0  0  0  0  0  0  0  0  0  0  0
   47.2821   78.5308   45.9684 C   0  0  0  0  0  0  0  0  0  0  0  0
   47.4857   78.8029   46.9089 O   0  0  0  0  0  0  0  0  0  0  0  0
   48.0245   78.4229   45.3072 N   0  0  0  0  0  0  0  0  0  0  0  0
   47.8240   78.1550   44.3813 H   0  0  0  0  0  0  0  0  0  0  0  0
   46.3360   78.3665   45.6892 C   0  0  0  0  0  0  0  0  0  0  0  0
   45.9355   76.7935   45.0848 C   0  0  0  0  0  0  0  0  0  0  0  0
   45.9268   76.4369   46.0190 O   0  0  0  0  0  0  0  0  0  0  0  0
   46.1401   77.7584   44.9199 N   0  0  0  0  0  0  0  0  0  0  0  0
   46.1488   78.1096   44.0002 H   0  0  0  0  0  0  0  0  0  0  0  0
   45.7397   76.1854   44.3155 C   0  0  0  0  0  0  0  0  0  0  0  0
   46.9468   76.0305   43.0830 C   0  0  0  0  0  0  0  0  0  0  0  0
   47.4768   75.4263   43.6780 O   0  0  0  0  0  0  0  0  0  0  0  0
   46.0782   76.4100   43.4018 N   0  0  0  0  0  0  0  0  0  0  0  0
   45.5564   77.0048   42.8160 H   0  0  0  0  0  0  0  0  0  0  0  0
   47.9425   76.9991   42.0484 N   0  0  0  0  0  0  0  0  0  0  0  0
   47.2853   76.2551   42.1692 C   0  0  0  0  0  0  0  0  0  0  0  0
   48.2877   77.2283   41.1165 H   0  0  0  0  0  0  0  0  0  0  0  0
   48.2676   77.5288   42.8573 H   0  0  0  0  0  0  0  0  0  0  0  0
   46.9665   75.7359   41.3763 C   0  0  0  0  0  0  0  0  0  0  0  0
   46.9489   74.7365   41.4072 O   0  0  0  0  0  0  0  0  0  0  0  0
   46.6654   76.2160   40.5524 C   0  0  0  0  0  0  0  0  0  0  0  0
   47.2411   74.2708   42.2064 H   0  0  0  0  0  0  0  0  0  0  0  0
   45.2054   75.3526   44.4600 C   0  0  0  0  0  0  0  0  0  0  0  0
   44.3054   75.2560   44.0350 C   0  0  0  0  0  0  0  0  0  0  0  0
   43.9743   74.3517   43.7649 C   0  0  0  0  0  0  0  0  0  0  0  0
   44.5195   73.7831   43.1490 O   0  0  0  0  0  0  0  0  0  0  0  0
   43.0981   74.0162   44.1110 N   0  0  0  0  0  0  0  0  0  0  0  0
   42.5615   74.5761   44.7174 H   0  0  0  0  0  0  0  0  0  0  0  0
   42.7723   73.1261   43.8452 H   0  0  0  0  0  0  0  0  0  0  0  0
   45.5858   78.8104   46.1792 C   0  0  0  0  0  0  0  0  0  0  0  0
   44.9809   79.4452   45.6984 C   0  0  0  0  0  0  0  0  0  0  0  0
   44.3260   79.9986   46.2130 C   0  0  0  0  0  0  0  0  0  0  0  0
   44.5584   80.9361   46.4722 O   0  0  0  0  0  0  0  0  0  0  0  0
   43.4387   79.6146   46.4685 N   0  0  0  0  0  0  0  0  0  0  0  0
   43.2099   78.6917   46.2133 H   0  0  0  0  0  0  0  0  0  0  0  0
   42.7940   80.1595   46.9752 H   0  0  0  0  0  0  0  0  0  0  0  0
   50.5632   75.8425   45.3000 C   0  0  0  0  0  0  0  0  0  0  0  0
   50.3396   75.4637   44.4019 O   0  0  0  0  0  0  0  0  0  0  0  0
   51.0501   75.2057   43.7938 H   0  0  0  0  0  0  0  0  0  0  0  0
   49.2894   75.5626   49.0365 C   0  0  0  0  0  0  0  0  0  0  0  0
   49.1018   76.4307   49.4959 C   0  0  0  0  0  0  0  0  0  0  0  0
   49.7593   77.1680   49.6506 C   0  0  0  0  0  0  0  0  0  0  0  0
   49.2875   77.9071   50.1316 N   0  0  0  0  0  0  0  0  0  0  0  0
   48.3383   77.6264   50.2741 C   0  0  0  0  0  0  0  0  0  0  0  0
   48.2236   76.7140   49.8812 N   0  0  0  0  0  0  0  0  0  0  0  0
   47.3919   76.1871   49.8749 H   0  0  0  0  0  0  0  0  0  0  0  0
 95 96  1  0  0  0
 95 97  1  0  0  0
 95 98  1  0  0  0
 96 91  1  0  0  0
 96 99  1  0  0  0
 91 92  2  0  0  0
 91 93  1  0  0  0
 93 90  1  0  0  0
 93 94  1  0  0  0
 90103  1  0  0  0
 90 86  1  0  0  0
103104  1  0  0  0
104105  1  0  0  0
105106  2  0  0  0
105107  1  0  0  0
107108  1  0  0  0
107109  1  0  0  0
 86 87  2  0  0  0
 86 88  1  0  0  0
 88 85  1  0  0  0
 88 89  1  0  0  0
 85110  1  0  0  0
 85 81  1  0  0  0
110111  1  0  0  0
111112  1  0  0  0
112113  2  0  0  0
112114  1  0  0  0
114115  1  0  0  0
114116  1  0  0  0
 81 82  2  0  0  0
 81 83  1  0  0  0
 83 79  1  0  0  0
 83 84  1  0  0  0
 79 80  1  0  0  0
 79 75  1  0  0  0
 75 76  2  0  0  0
 75 77  1  0  0  0
 77 74  1  0  0  0
 77 78  1  0  0  0
 74117  1  0  0  0
 74 70  1  0  0  0
117118  1  0  0  0
118119  1  0  0  0
 70 71  2  0  0  0
 70 72  1  0  0  0
 72 69  1  0  0  0
 72 73  1  0  0  0
 69120  1  0  0  0
 69 65  1  0  0  0
120121  1  0  0  0
121125  1  0  0  0
121122  2  0  0  0
122123  1  0  0  0
123124  2  0  0  0
124125  1  0  0  0
125126  1  0  0  0
 65 66  2  0  0  0
 65 67  1  0  0  0
 67  1  1  0  0  0
 67 68  1  0  0  0
  1  2  1  0  0  0
  1 10  1  0  0  0
  2  8  2  0  0  0
  2  3  1  0  0  0
  3  4  2  0  0  0
  4  5  1  0  0  0
  5  6  1  0  0  0
  5  7  2  0  0  0
  6  9  1  0  0  0
  7  8  1  0  0  0
 10 11  2  0  0  0
 10 12  1  0  0  0
 12 14  1  0  0  0
 12 13  1  0  0  0
 14 58  1  0  0  0
 14 15  1  0  0  0
 58 59  1  0  0  0
 59 60  1  0  0  0
 60 61  1  0  0  0
 61 62  1  0  0  0
 62 63  1  0  0  0
 62 64  1  0  0  0
 15 16  2  0  0  0
 15 17  1  0  0  0
 17 19  1  0  0  0
 17 18  1  0  0  0
 19 51  1  0  0  0
 19 20  1  0  0  0
 51 52  1  0  0  0
 52 53  1  0  0  0
 53 54  2  0  0  0
 53 55  1  0  0  0
 55 56  1  0  0  0
 55 57  1  0  0  0
 20 21  2  0  0  0
 20 22  1  0  0  0
 22 24  1  0  0  0
 22 23  1  0  0  0
 24 44  1  0  0  0
 24 25  1  0  0  0
 44 45  1  0  0  0
 45 49  1  0  0  0
 45 46  2  0  0  0
 46 47  1  0  0  0
 47 48  2  0  0  0
 48 49  1  0  0  0
 49 50  1  0  0  0
 25 26  2  0  0  0
 25 27  1  0  0  0
 27 29  1  0  0  0
 27 28  1  0  0  0
 29 41  1  0  0  0
 29 30  1  0  0  0
 41 42  1  0  0  0
 42 43  1  0  0  0
 30 31  2  0  0  0
 30 32  1  0  0  0
 32 36  1  0  0  0
 32 33  1  0  0  0
 33 34  1  0  0  0
 34 35  1  0  0  0
 35 36  1  0  0  0
 36 37  1  0  0  0
 37 38  1  0  0  0
 37 39  2  0  0  0
 38 40  1  0  0  0
 99100  1  0  0  0
 99101  1  0  0  0
100102  1  0  0  0
M  END
> <minimizedAffinity>
-6.94151

$$$$



126129  0  0  0  0  0  0  0  0999 V2000
   46.7702   73.8960   47.2865 C   0  0  0  0  0  0  0  0  0  0  0  0
   46.7569   73.3476   46.4504 C   0  0  0  0  0  0  0  0  0  0  0  0
   46.7699   72.3493   46.5069 C   0  0  0  0  0  0  0  0  0  0  0  0
   46.7565   71.8009   45.6707 C   0  0  0  0  0  0  0  0  0  0  0  0
   46.7302   72.2509   44.7781 C   0  0  0  0  0  0  0  0  0  0  0  0
   46.7169   71.7025   43.9420 O   0  0  0  0  0  0  0  0  0  0  0  0
   46.7172   73.2492   44.7215 C   0  0  0  0  0  0  0  0  0  0  0  0
   46.7306   73.7976   45.5576 C   0  0  0  0  0  0  0  0  0  0  0  0
   46.7290   70.7671   43.9950 H   0  0  0  0  0  0  0  0  0  0  0  0
   45.9849   73.8831   47.9055 C   0  0  0  0  0  0  0  0  0  0  0  0
   45.7592   73.0494   48.4094 O   0  0  0  0  0  0  0  0  0  0  0  0
   45.4254   74.7039   48.0205 N   0  0  0  0  0  0  0  0  0  0  0  0
   45.6477   75.5246   47.5244 H   0  0  0  0  0  0  0  0  0  0  0  0
   44.6401   74.6910   48.6395 C   0  0  0  0  0  0  0  0  0  0  0  0
   44.7131   75.1014   49.5484 C   0  0  0  0  0  0  0  0  0  0  0  0
   45.0426   76.0403   49.6481 O   0  0  0  0  0  0  0  0  0  0  0  0
   44.4565   74.5730   50.3578 N   0  0  0  0  0  0  0  0  0  0  0  0
   44.1321   73.6487   50.2596 H   0  0  0  0  0  0  0  0  0  0  0  0
   44.5295   74.9834   51.2667 C   0  0  0  0  0  0  0  0  0  0  0  0
   43.7305   75.4139   51.6865 C   0  0  0  0  0  0  0  0  0  0  0  0
   42.9317   74.8612   51.9239 O   0  0  0  0  0  0  0  0  0  0  0  0
   43.7303   76.3972   51.8689 N   0  0  0  0  0  0  0  0  0  0  0  0
   44.5167   76.9414   51.6352 H   0  0  0  0  0  0  0  0  0  0  0  0
   42.9313   76.8277   52.2887 C   0  0  0  0  0  0  0  0  0  0  0  0
   42.2703   77.3170   51.7199 C   0  0  0  0  0  0  0  0  0  0  0  0
   42.5790   78.0474   51.1106 O   0  0  0  0  0  0  0  0  0  0  0  0
   41.3006   77.0760   51.7602 N   0  0  0  0  0  0  0  0  0  0  0  0
   40.9968   76.3570   52.3601 H   0  0  0  0  0  0  0  0  0  0  0  0
   40.6397   77.5654   51.1914 C   0  0  0  0  0  0  0  0  0  0  0  0
   40.2022   78.3962   51.5354 C   0  0  0  0  0  0  0  0  0  0  0  0
   40.4155   79.2815   51.1221 O   0  0  0  0  0  0  0  0  0  0  0  0
   39.5515   78.3418   52.2928 N   0  0  0  0  0  0  0  0  0  0  0  0
   39.2738   77.5082   52.7703 C   0  0  0  0  0  0  0  0  0  0  0  0
   38.6149   77.7627   53.4783 C   0  0  0  0  0  0  0  0  0  0  0  0
   38.4855   78.7535   53.4383 C   0  0  0  0  0  0  0  0  0  0  0  0
   39.0643   79.1113   52.7056 C   0  0  0  0  0  0  0  0  0  0  0  0
   39.1423   80.0704   52.4335 C   0  0  0  0  0  0  0  0  0  0  0  0
   38.5200   80.4478   51.7477 O   0  0  0  0  0  0  0  0  0  0  0  0
   39.8427   80.6522   52.8472 O   0  0  0  0  0  0  0  0  0  0  0  0
   37.8638   79.9027   51.3602 H   0  0  0  0  0  0  0  0  0  0  0  0
   40.4161   77.2239   50.2784 C   0  0  0  0  0  0  0  0  0  0  0  0
   40.2109   77.8668   49.5405 S   0  0  0  0  0  0  0  0  0  0  0  0
   40.2360   79.2056   49.7784 H   0  0  0  0  0  0  0  0  0  0  0  0
   42.7932   76.7688   53.2774 C   0  0  0  0  0  0  0  0  0  0  0  0
   43.1123   77.5071   53.8716 C   0  0  0  0  0  0  0  0  0  0  0  0
   44.0508   77.6418   54.1895 C   0  0  0  0  0  0  0  0  0  0  0  0
   44.0674   78.4583   54.7667 N   0  0  0  0  0  0  0  0  0  0  0  0
   43.1391   78.8282   54.8056 C   0  0  0  0  0  0  0  0  0  0  0  0
   42.5488   78.2402   54.2523 N   0  0  0  0  0  0  0  0  0  0  0  0
   41.5826   78.3620   54.1079 H   0  0  0  0  0  0  0  0  0  0  0  0
   45.4015   74.9634   51.7558 C   0  0  0  0  0  0  0  0  0  0  0  0
   45.7490   74.1007   52.1231 C   0  0  0  0  0  0  0  0  0  0  0  0
   46.4628   74.1069   52.8235 C   0  0  0  0  0  0  0  0  0  0  0  0
   46.2146   74.0544   53.7908 O   0  0  0  0  0  0  0  0  0  0  0  0
   47.4247   74.1655   52.5566 N   0  0  0  0  0  0  0  0  0  0  0  0
   47.6690   74.2172   51.6042 H   0  0  0  0  0  0  0  0  0  0  0  0
   48.1274   74.1716   53.2461 H   0  0  0  0  0  0  0  0  0  0  0  0
   43.7818   74.2676   48.3495 C   0  0  0  0  0  0  0  0  0  0  0  0
   43.1280   74.7882   47.8003 C   0  0  0  0  0  0  0  0  0  0  0  0
   42.1717   74.4994   47.7544 C   0  0  0  0  0  0  0  0  0  0  0  0
   41.5371   74.9671   47.1392 C   0  0  0  0  0  0  0  0  0  0  0  0
   40.5515   74.9055   47.2964 N   0  0  0  0  0  0  0  0  0  0  0  0
   40.1934   74.3655   48.0843 H   0  0  0  0  0  0  0  0  0  0  0  0
   39.9041   75.3825   46.6689 H   0  0  0  0  0  0  0  0  0  0  0  0
   48.1722   74.1980   48.2577 C   0  0  0  0  0  0  0  0  0  0  0  0
   47.9770   73.3773   48.7947 O   0  0  0  0  0  0  0  0  0  0  0  0
   47.5688   74.4573   47.5036 N   0  0  0  0  0  0  0  0  0  0  0  0
   47.7610   75.2653   46.9749 H   0  0  0  0  0  0  0  0  0  0  0  0
   48.9708   74.7593   48.4748 C   0  0  0  0  0  0  0  0  0  0  0  0
   48.6879   76.1284   49.4973 C   0  0  0  0  0  0  0  0  0  0  0  0
   48.6050   75.5212   50.2874 O   0  0  0  0  0  0  0  0  0  0  0  0
   48.8708   75.7475   48.5909 N   0  0  0  0  0  0  0  0  0  0  0  0
   48.9524   76.3453   47.8130 H   0  0  0  0  0  0  0  0  0  0  0  0
   48.5878   77.1166   49.6134 C   0  0  0  0  0  0  0  0  0  0  0  0
   47.3200   78.2939   49.6945 C   0  0  0  0  0  0  0  0  0  0  0  0
   47.5840   78.5135   50.6337 O   0  0  0  0  0  0  0  0  0  0  0  0
   47.8219   77.5955   49.1844 N   0  0  0  0  0  0  0  0  0  0  0  0
   47.5620   77.3793   48.2598 H   0  0  0  0  0  0  0  0  0  0  0  0
   46.5541   78.7728   49.2655 C   0  0  0  0  0  0  0  0  0  0  0  0
   46.1227   79.5449   49.7321 C   0  0  0  0  0  0  0  0  0  0  0  0
   46.2365   79.1144   47.5975 C   0  0  0  0  0  0  0  0  0  0  0  0
   46.5878   80.0425   47.7207 O   0  0  0  0  0  0  0  0  0  0  0  0
   46.2196   78.4795   48.3699 N   0  0  0  0  0  0  0  0  0  0  0  0
   45.8737   77.5658   48.2486 H   0  0  0  0  0  0  0  0  0  0  0  0
   45.9020   78.8212   46.7018 C   0  0  0  0  0  0  0  0  0  0  0  0
   46.6888   77.7085   45.6328 C   0  0  0  0  0  0  0  0  0  0  0  0
   46.1820   76.9524   46.0468 O   0  0  0  0  0  0  0  0  0  0  0  0
   46.5488   78.6429   45.9603 N   0  0  0  0  0  0  0  0  0  0  0  0
   47.0478   79.3873   45.5529 H   0  0  0  0  0  0  0  0  0  0  0  0
   47.3357   77.5302   44.8914 C   0  0  0  0  0  0  0  0  0  0  0  0
   49.0263   77.4657   45.2626 C   0  0  0  0  0  0  0  0  0  0  0  0
   48.9131   76.5373   45.6166 O   0  0  0  0  0  0  0  0  0  0  0  0
   48.2376   77.9621   44.9000 N   0  0  0  0  0  0  0  0  0  0  0  0
   48.3490   78.8761   44.5515 H   0  0  0  0  0  0  0  0  0  0  0  0
   50.4839   77.9114   44.4400 N   0  0  0  0  0  0  0  0  0  0  0  0
   49.9282   77.8976   45.2712 C   0  0  0  0  0  0  0  0  0  0  0  0
   51.4038   78.3519   44.4487 H   0  0  0  0  0  0  0  0  0  0  0  0
   50.1308   77.4848   43.5833 H   0  0  0  0  0  0  0  0  0  0  0  0
   50.2743   78.3158   46.1110 C   0  0  0  0  0  0  0  0  0  0  0  0
   49.6766   78.4066   46.9075 O   0  0  0  0  0  0  0  0  0  0  0  0
   51.2182   78.6432   46.1543 C   0  0  0  0  0  0  0  0  0  0  0  0
   48.7609   78.0890   46.8655 H   0  0  0  0  0  0  0  0  0  0  0  0
   47.0808   76.9201   44.1413 C   0  0  0  0  0  0  0  0  0  0  0  0
   46.7800   77.3011   43.2670 C   0  0  0  0  0  0  0  0  0  0  0  0
   46.7024   76.7100   42.4641 C   0  0  0  0  0  0  0  0  0  0  0  0
   47.5219   76.2995   42.0643 O   0  0  0  0  0  0  0  0  0  0  0  0
   45.8052   76.5294   42.0611 N   0  0  0  0  0  0  0  0  0  0  0  0
   44.9984   76.9335   42.4547 H   0  0  0  0  0  0  0  0  0  0  0  0
   45.7288   75.9475   41.2707 H   0  0  0  0  0  0  0  0  0  0  0  0
   44.9206   78.7063   46.5476 C   0  0  0  0  0  0  0  0  0  0  0  0
   44.3806   79.4625   46.1782 C   0  0  0  0  0  0  0  0  0  0  0  0
   43.5336   79.2758   45.6807 C   0  0  0  0  0  0  0  0  0  0  0  0
   43.4685   79.4899   44.7061 O   0  0  0  0  0  0  0  0  0  0  0  0
   42.7514   78.8748   46.1578 N   0  0  0  0  0  0  0  0  0  0  0  0
   42.8155   78.6640   47.1174 H   0  0  0  0  0  0  0  0  0  0  0  0
   41.9175   78.6909   45.6680 H   0  0  0  0  0  0  0  0  0  0  0  0
   49.2537   77.6259   50.1586 C   0  0  0  0  0  0  0  0  0  0  0  0
   50.1599   77.8230   49.7846 O   0  0  0  0  0  0  0  0  0  0  0  0
   50.8059   78.3171   50.3135 H   0  0  0  0  0  0  0  0  0  0  0  0
   49.8695   74.3324   48.5758 C   0  0  0  0  0  0  0  0  0  0  0  0
   50.6536   74.6920   48.0700 C   0  0  0  0  0  0  0  0  0  0  0  0
   50.8632   74.5165   47.1081 C   0  0  0  0  0  0  0  0  0  0  0  0
   51.7049   75.0063   46.8808 N   0  0  0  0  0  0  0  0  0  0  0  0
   52.0155   75.4846   47.7024 C   0  0  0  0  0  0  0  0  0  0  0  0
   51.3657   75.2902   48.4372 N   0  0  0  0  0  0  0  0  0  0  0  0
   51.4180   75.6286   49.3603 H   0  0  0  0  0  0  0  0  0  0  0  0
 95 96  1  0  0  0
 95 97  1  0  0  0
 95 98  1  0  0  0
 96 91  1  0  0  0
 96 99  1  0  0  0
 91 92  2  0  0  0
 91 93  1  0  0  0
 93 90  1  0  0  0
 93 94  1  0  0  0
 90103  1  0  0  0
 90 86  1  0  0  0
103104  1  0  0  0
104105  1  0  0  0
105106  2  0  0  0
105107  1  0  0  0
107108  1  0  0  0
107109  1  0  0  0
 86 87  2  0  0  0
 86 88  1  0  0  0
 88 85  1  0  0  0
 88 89  1  0  0  0
 85110  1  0  0  0
 85 81  1  0  0  0
110111  1  0  0  0
111112  1  0  0  0
112113  2  0  0  0
112114  1  0  0  0
114115  1  0  0  0
114116  1  0  0  0
 81 82  2  0  0  0
 81 83  1  0  0  0
 83 79  1  0  0  0
 83 84  1  0  0  0
 79 80  1  0  0  0
 79 75  1  0  0  0
 75 76  2  0  0  0
 75 77  1  0  0  0
 77 74  1  0  0  0
 77 78  1  0  0  0
 74117  1  0  0  0
 74 70  1  0  0  0
117118  1  0  0  0
118119  1  0  0  0
 70 71  2  0  0  0
 70 72  1  0  0  0
 72 69  1  0  0  0
 72 73  1  0  0  0
 69120  1  0  0  0
 69 65  1  0  0  0
120121  1  0  0  0
121125  1  0  0  0
121122  2  0  0  0
122123  1  0  0  0
123124  2  0  0  0
124125  1  0  0  0
125126  1  0  0  0
 65 66  2  0  0  0
 65 67  1  0  0  0
 67  1  1  0  0  0
 67 68  1  0  0  0
  1  2  1  0  0  0
  1 10  1  0  0  0
  2  8  2  0  0  0
  2  3  1  0  0  0
  3  4  2  0  0  0
  4  5  1  0  0  0
  5  6  1  0  0  0
  5  7  2  0  0  0
  6  9  1  0  0  0
  7  8  1  0  0  0
 10 11  2  0  0  0
 10 12  1  0  0  0
 12 14  1  0  0  0
 12 13  1  0  0  0
 14 58  1  0  0  0
 14 15  1  0  0  0
 58 59  1  0  0  0
 59 60  1  0  0  0
 60 61  1  0  0  0
 61 62  1  0  0  0
 62 63  1  0  0  0
 62 64  1  0  0  0
 15 16  2  0  0  0
 15 17  1  0  0  0
 17 19  1  0  0  0
 17 18  1  0  0  0
 19 51  1  0  0  0
 19 20  1  0  0  0
 51 52  1  0  0  0
 52 53  1  0  0  0
 53 54  2  0  0  0
 53 55  1  0  0  0
 55 56  1  0  0  0
 55 57  1  0  0  0
 20 21  2  0  0  0
 20 22  1  0  0  0
 22 24  1  0  0  0
 22 23  1  0  0  0
 24 44  1  0  0  0
 24 25  1  0  0  0
 44 45  1  0  0  0
 45 49  1  0  0  0
 45 46  2  0  0  0
 46 47  1  0  0  0
 47 48  2  0  0  0
 48 49  1  0  0  0
 49 50  1  0  0  0
 25 26  2  0  0  0
 25 27  1  0  0  0
 27 29  1  0  0  0
 27 28  1  0  0  0
 29 41  1  0  0  0
 29 30  1  0  0  0
 41 42  1  0  0  0
 42 43  1  0  0  0
 30 31  2  0  0  0
 30 32  1  0  0  0
 32 36  1  0  0  0
 32 33  1  0  0  0
 33 34  1  0  0  0
 34 35  1  0  0  0
 35 36  1  0  0  0
 36 37  1  0  0  0
 37 38  1  0  0  0
 37 39  2  0  0  0
 38 40  1  0  0  0
 99100  1  0  0  0
 99101  1  0  0  0
100102  1  0  0  0
M  END
> <minimizedAffinity>
-6.93380

$$$$



126129  0  0  0  0  0  0  0  0999 V2000
   41.7802   75.3201   47.6999 C   0  0  0  0  0  0  0  0  0  0  0  0
   41.0620   75.0678   47.0514 C   0  0  0  0  0  0  0  0  0  0  0  0
   40.9056   74.1058   46.8278 C   0  0  0  0  0  0  0  0  0  0  0  0
   40.1874   73.8536   46.1792 C   0  0  0  0  0  0  0  0  0  0  0  0
   39.6255   74.5634   45.7544 C   0  0  0  0  0  0  0  0  0  0  0  0
   38.9073   74.3112   45.1060 O   0  0  0  0  0  0  0  0  0  0  0  0
   39.7819   75.5254   45.9781 C   0  0  0  0  0  0  0  0  0  0  0  0
   40.5001   75.7777   46.6265 C   0  0  0  0  0  0  0  0  0  0  0  0
   38.7608   73.4097   44.8964 H   0  0  0  0  0  0  0  0  0  0  0  0
   42.7251   75.4164   47.3869 C   0  0  0  0  0  0  0  0  0  0  0  0
   43.4749   75.0569   47.9424 O   0  0  0  0  0  0  0  0  0  0  0  0
   42.9201   75.8723   46.5185 N   0  0  0  0  0  0  0  0  0  0  0  0
   42.1819   76.2262   45.9717 H   0  0  0  0  0  0  0  0  0  0  0  0
   43.8650   75.9686   46.2055 C   0  0  0  0  0  0  0  0  0  0  0  0
   44.3256   76.8538   46.2708 C   0  0  0  0  0  0  0  0  0  0  0  0
   43.9361   77.6548   45.8162 O   0  0  0  0  0  0  0  0  0  0  0  0
   45.1756   76.9380   46.7907 N   0  0  0  0  0  0  0  0  0  0  0  0
   45.5590   76.1494   47.2383 H   0  0  0  0  0  0  0  0  0  0  0  0
   45.6362   77.8232   46.8561 C   0  0  0  0  0  0  0  0  0  0  0  0
   46.3802   78.0473   46.2267 C   0  0  0  0  0  0  0  0  0  0  0  0
   47.2325   77.5249   46.2537 O   0  0  0  0  0  0  0  0  0  0  0  0
   46.2721   78.7940   45.5702 N   0  0  0  0  0  0  0  0  0  0  0  0
   45.4330   79.3083   45.5436 H   0  0  0  0  0  0  0  0  0  0  0  0
   47.0161   79.0181   44.9408 C   0  0  0  0  0  0  0  0  0  0  0  0
   47.6142   79.7967   45.1308 C   0  0  0  0  0  0  0  0  0  0  0  0
   47.2345   80.6351   45.5217 O   0  0  0  0  0  0  0  0  0  0  0  0
   48.5920   79.7368   44.9298 N   0  0  0  0  0  0  0  0  0  0  0  0
   48.9657   78.9113   44.5449 H   0  0  0  0  0  0  0  0  0  0  0  0
   49.1901   80.5154   45.1197 C   0  0  0  0  0  0  0  0  0  0  0  0
   49.8273   80.4802   45.8895 C   0  0  0  0  0  0  0  0  0  0  0  0
   49.7327   81.1263   46.6469 O   0  0  0  0  0  0  0  0  0  0  0  0
   50.5593   79.7988   45.9020 N   0  0  0  0  0  0  0  0  0  0  0  0
   50.7359   79.1131   45.1960 C   0  0  0  0  0  0  0  0  0  0  0  0
   51.5289   78.5741   45.4804 C   0  0  0  0  0  0  0  0  0  0  0  0
   51.8421   78.9269   46.3621 C   0  0  0  0  0  0  0  0  0  0  0  0
   51.2429   79.6838   46.6227 C   0  0  0  0  0  0  0  0  0  0  0  0
   51.3147   80.2298   47.4573 C   0  0  0  0  0  0  0  0  0  0  0  0
   50.8126   79.9569   48.2780 O   0  0  0  0  0  0  0  0  0  0  0  0
   51.8886   81.0486   47.4714 O   0  0  0  0  0  0  0  0  0  0  0  0
   50.2750   79.1897   48.2649 H   0  0  0  0  0  0  0  0  0  0  0  0
   49.1509   81.3292   44.5398 C   0  0  0  0  0  0  0  0  0  0  0  0
   49.6051   81.3307   43.6489 S   0  0  0  0  0  0  0  0  0  0  0  0
   50.2762   80.2260   43.2259 H   0  0  0  0  0  0  0  0  0  0  0  0
   47.1621   78.4636   44.1215 C   0  0  0  0  0  0  0  0  0  0  0  0
   46.4433   78.3950   43.4296 C   0  0  0  0  0  0  0  0  0  0  0  0
   46.1258   79.1349   42.8365 C   0  0  0  0  0  0  0  0  0  0  0  0
   45.4022   78.7717   42.2497 N   0  0  0  0  0  0  0  0  0  0  0  0
   45.2724   77.8072   42.4801 C   0  0  0  0  0  0  0  0  0  0  0  0
   45.9159   77.5745   43.2094 N   0  0  0  0  0  0  0  0  0  0  0  0
   46.0130   76.6924   43.6356 H   0  0  0  0  0  0  0  0  0  0  0  0
   45.3527   78.4843   47.5508 C   0  0  0  0  0  0  0  0  0  0  0  0
   45.5332   78.3024   48.5173 C   0  0  0  0  0  0  0  0  0  0  0  0
   45.1388   78.8947   49.2198 C   0  0  0  0  0  0  0  0  0  0  0  0
   44.2124   79.2546   49.1080 O   0  0  0  0  0  0  0  0  0  0  0  0
   45.6706   79.1273   50.0341 N   0  0  0  0  0  0  0  0  0  0  0  0
   46.5826   78.7730   50.1441 H   0  0  0  0  0  0  0  0  0  0  0  0
   45.2823   79.7105   50.7257 H   0  0  0  0  0  0  0  0  0  0  0  0
   44.3493   75.1797   45.8271 C   0  0  0  0  0  0  0  0  0  0  0  0
   44.2069   74.9161   44.8730 C   0  0  0  0  0  0  0  0  0  0  0  0
   44.7460   74.1747   44.4734 C   0  0  0  0  0  0  0  0  0  0  0  0
   44.7364   74.0264   43.4845 C   0  0  0  0  0  0  0  0  0  0  0  0
   45.5256   74.2931   42.9312 N   0  0  0  0  0  0  0  0  0  0  0  0
   46.3403   74.7165   43.3757 H   0  0  0  0  0  0  0  0  0  0  0  0
   45.5159   74.1419   41.9226 H   0  0  0  0  0  0  0  0  0  0  0  0
   41.6075   76.3980   49.0445 C   0  0  0  0  0  0  0  0  0  0  0  0
   41.8880   77.1643   48.4663 O   0  0  0  0  0  0  0  0  0  0  0  0
   41.5536   75.4760   48.6613 N   0  0  0  0  0  0  0  0  0  0  0  0
   41.2775   74.7217   49.2305 H   0  0  0  0  0  0  0  0  0  0  0  0
   41.3808   76.5539   50.0060 C   0  0  0  0  0  0  0  0  0  0  0  0
   42.4131   75.9010   51.2340 C   0  0  0  0  0  0  0  0  0  0  0  0
   41.9851   75.0048   51.1172 O   0  0  0  0  0  0  0  0  0  0  0  0
   42.1109   76.6756   50.6784 N   0  0  0  0  0  0  0  0  0  0  0  0
   42.5322   77.5579   50.7934 H   0  0  0  0  0  0  0  0  0  0  0  0
   43.1431   76.0226   51.9065 C   0  0  0  0  0  0  0  0  0  0  0  0
   44.8731   76.0109   51.8223 C   0  0  0  0  0  0  0  0  0  0  0  0
   44.8852   77.0045   51.9342 O   0  0  0  0  0  0  0  0  0  0  0  0
   44.0020   75.5199   51.8084 N   0  0  0  0  0  0  0  0  0  0  0  0
   43.9900   74.5417   51.6983 H   0  0  0  0  0  0  0  0  0  0  0  0
   45.7320   75.5082   51.7243 C   0  0  0  0  0  0  0  0  0  0  0  0
   45.9578   74.7745   52.3650 C   0  0  0  0  0  0  0  0  0  0  0  0
   47.2305   75.2463   50.8962 C   0  0  0  0  0  0  0  0  0  0  0  0
   47.4628   74.5223   51.5456 O   0  0  0  0  0  0  0  0  0  0  0  0
   46.3650   75.7393   50.9855 N   0  0  0  0  0  0  0  0  0  0  0  0
   46.1363   76.4521   50.3461 H   0  0  0  0  0  0  0  0  0  0  0  0
   47.8636   75.4774   50.1573 C   0  0  0  0  0  0  0  0  0  0  0  0
   48.3047   74.2813   48.9848 C   0  0  0  0  0  0  0  0  0  0  0  0
   48.9782   73.9057   49.6214 O   0  0  0  0  0  0  0  0  0  0  0  0
   47.7474   75.0672   49.2527 N   0  0  0  0  0  0  0  0  0  0  0  0
   47.0844   75.4371   48.6260 H   0  0  0  0  0  0  0  0  0  0  0  0
   48.1886   73.8712   48.0802 C   0  0  0  0  0  0  0  0  0  0  0  0
   46.9631   72.6712   47.8388 C   0  0  0  0  0  0  0  0  0  0  0  0
   46.2731   73.3910   47.7636 O   0  0  0  0  0  0  0  0  0  0  0  0
   47.9209   72.9113   47.9971 N   0  0  0  0  0  0  0  0  0  0  0  0
   48.6003   72.2026   48.0711 H   0  0  0  0  0  0  0  0  0  0  0  0
   46.8752   71.0753   48.5062 N   0  0  0  0  0  0  0  0  0  0  0  0
   46.6954   71.7112   47.7557 C   0  0  0  0  0  0  0  0  0  0  0  0
   46.6022   70.0962   48.4215 H   0  0  0  0  0  0  0  0  0  0  0  0
   47.3315   71.4058   49.3565 H   0  0  0  0  0  0  0  0  0  0  0  0
   46.2481   71.3872   46.9221 C   0  0  0  0  0  0  0  0  0  0  0  0
   46.7570   71.3546   46.0619 O   0  0  0  0  0  0  0  0  0  0  0  0
   45.2919   71.0959   46.9487 C   0  0  0  0  0  0  0  0  0  0  0  0
   47.6846   71.6372   46.0361 H   0  0  0  0  0  0  0  0  0  0  0  0
   48.3401   74.4209   47.2587 C   0  0  0  0  0  0  0  0  0  0  0  0
   49.2373   74.4230   46.8171 C   0  0  0  0  0  0  0  0  0  0  0  0
   49.5415   75.2275   46.3068 C   0  0  0  0  0  0  0  0  0  0  0  0
   50.2214   75.8439   46.7039 O   0  0  0  0  0  0  0  0  0  0  0  0
   49.1656   75.4155   45.3994 N   0  0  0  0  0  0  0  0  0  0  0  0
   48.4962   74.8087   45.0084 H   0  0  0  0  0  0  0  0  0  0  0  0
   49.4651   76.2075   44.8970 H   0  0  0  0  0  0  0  0  0  0  0  0
   48.6128   76.1186   50.3231 C   0  0  0  0  0  0  0  0  0  0  0  0
   48.6224   77.0062   49.8627 C   0  0  0  0  0  0  0  0  0  0  0  0
   49.3051   77.6924   50.1138 C   0  0  0  0  0  0  0  0  0  0  0  0
   50.2515   77.5917   49.8070 O   0  0  0  0  0  0  0  0  0  0  0  0
   49.0414   78.4793   50.6718 N   0  0  0  0  0  0  0  0  0  0  0  0
   48.1097   78.5785   50.9739 H   0  0  0  0  0  0  0  0  0  0  0  0
   49.7136   79.1549   50.9190 H   0  0  0  0  0  0  0  0  0  0  0  0
   43.0143   76.6469   52.6769 C   0  0  0  0  0  0  0  0  0  0  0  0
   42.4442   76.3738   53.4518 O   0  0  0  0  0  0  0  0  0  0  0  0
   42.3193   76.9795   54.1992 H   0  0  0  0  0  0  0  0  0  0  0  0
   40.4240   76.5882   50.2949 C   0  0  0  0  0  0  0  0  0  0  0  0
   40.0235   77.4534   50.5967 C   0  0  0  0  0  0  0  0  0  0  0  0
   39.7352   77.6743   51.5283 C   0  0  0  0  0  0  0  0  0  0  0  0
   39.3745   78.6070   51.5273 N   0  0  0  0  0  0  0  0  0  0  0  0
   39.4399   78.9625   50.5948 C   0  0  0  0  0  0  0  0  0  0  0  0
   39.8411   78.2495   50.0198 N   0  0  0  0  0  0  0  0  0  0  0  0
   40.0242   78.3191   49.0549 H   0  0  0  0  0  0  0  0  0  0  0  0
 95 96  1  0  0  0
 95 97  1  0  0  0
 95 98  1  0  0  0
 96 91  1  0  0  0
 96 99  1  0  0  0
 91 92  2  0  0  0
 91 93  1  0  0  0
 93 90  1  0  0  0
 93 94  1  0  0  0
 90103  1  0  0  0
 90 86  1  0  0  0
103104  1  0  0  0
104105  1  0  0  0
105106  2  0  0  0
105107  1  0  0  0
107108  1  0  0  0
107109  1  0  0  0
 86 87  2  0  0  0
 86 88  1  0  0  0
 88 85  1  0  0  0
 88 89  1  0  0  0
 85110  1  0  0  0
 85 81  1  0  0  0
110111  1  0  0  0
111112  1  0  0  0
112113  2  0  0  0
112114  1  0  0  0
114115  1  0  0  0
114116  1  0  0  0
 81 82  2  0  0  0
 81 83  1  0  0  0
 83 79  1  0  0  0
 83 84  1  0  0  0
 79 80  1  0  0  0
 79 75  1  0  0  0
 75 76  2  0  0  0
 75 77  1  0  0  0
 77 74  1  0  0  0
 77 78  1  0  0  0
 74117  1  0  0  0
 74 70  1  0  0  0
117118  1  0  0  0
118119  1  0  0  0
 70 71  2  0  0  0
 70 72  1  0  0  0
 72 69  1  0  0  0
 72 73  1  0  0  0
 69120  1  0  0  0
 69 65  1  0  0  0
120121  1  0  0  0
121125  1  0  0  0
121122  2  0  0  0
122123  1  0  0  0
123124  2  0  0  0
124125  1  0  0  0
125126  1  0  0  0
 65 66  2  0  0  0
 65 67  1  0  0  0
 67  1  1  0  0  0
 67 68  1  0  0  0
  1  2  1  0  0  0
  1 10  1  0  0  0
  2  8  2  0  0  0
  2  3  1  0  0  0
  3  4  2  0  0  0
  4  5  1  0  0  0
  5  6  1  0  0  0
  5  7  2  0  0  0
  6  9  1  0  0  0
  7  8  1  0  0  0
 10 11  2  0  0  0
 10 12  1  0  0  0
 12 14  1  0  0  0
 12 13  1  0  0  0
 14 58  1  0  0  0
 14 15  1  0  0  0
 58 59  1  0  0  0
 59 60  1  0  0  0
 60 61  1  0  0  0
 61 62  1  0  0  0
 62 63  1  0  0  0
 62 64  1  0  0  0
 15 16  2  0  0  0
 15 17  1  0  0  0
 17 19  1  0  0  0
 17 18  1  0  0  0
 19 51  1  0  0  0
 19 20  1  0  0  0
 51 52  1  0  0  0
 52 53  1  0  0  0
 53 54  2  0  0  0
 53 55  1  0  0  0
 55 56  1  0  0  0
 55 57  1  0  0  0
 20 21  2  0  0  0
 20 22  1  0  0  0
 22 24  1  0  0  0
 22 23  1  0  0  0
 24 44  1  0  0  0
 24 25  1  0  0  0
 44 45  1  0  0  0
 45 49  1  0  0  0
 45 46  2  0  0  0
 46 47  1  0  0  0
 47 48  2  0  0  0
 48 49  1  0  0  0
 49 50  1  0  0  0
 25 26  2  0  0  0
 25 27  1  0  0  0
 27 29  1  0  0  0
 27 28  1  0  0  0
 29 41  1  0  0  0
 29 30  1  0  0  0
 41 42  1  0  0  0
 42 43  1  0  0  0
 30 31  2  0  0  0
 30 32  1  0  0  0
 32 36  1  0  0  0
 32 33  1  0  0  0
 33 34  1  0  0  0
 34 35  1  0  0  0
 35 36  1  0  0  0
 36 37  1  0  0  0
 37 38  1  0  0  0
 37 39  2  0  0  0
 38 40  1  0  0  0
 99100  1  0  0  0
 99101  1  0  0  0
100102  1  0  0  0
M  END
> <minimizedAffinity>
-6.79870

$$$$



126129  0  0  0  0  0  0  0  0999 V2000
   50.5001   78.4097   47.2709 C   0  0  0  0  0  0  0  0  0  0  0  0
   51.1794   79.1182   47.0797 C   0  0  0  0  0  0  0  0  0  0  0  0
   52.1518   78.9280   47.2147 C   0  0  0  0  0  0  0  0  0  0  0  0
   52.8311   79.6366   47.0235 C   0  0  0  0  0  0  0  0  0  0  0  0
   52.5380   80.5353   46.6974 C   0  0  0  0  0  0  0  0  0  0  0  0
   53.2173   81.2438   46.5063 O   0  0  0  0  0  0  0  0  0  0  0  0
   51.5656   80.7255   46.5625 C   0  0  0  0  0  0  0  0  0  0  0  0
   50.8863   80.0170   46.7536 C   0  0  0  0  0  0  0  0  0  0  0  0
   54.1285   81.0656   46.6327 H   0  0  0  0  0  0  0  0  0  0  0  0
   50.1308   78.3073   48.1945 C   0  0  0  0  0  0  0  0  0  0  0  0
   50.6973   78.5322   48.9873 O   0  0  0  0  0  0  0  0  0  0  0  0
   49.1950   77.9800   48.3254 N   0  0  0  0  0  0  0  0  0  0  0  0
   48.6373   77.7586   47.5449 H   0  0  0  0  0  0  0  0  0  0  0  0
   48.8257   77.8776   49.2491 C   0  0  0  0  0  0  0  0  0  0  0  0
   48.1100   78.4963   49.5729 C   0  0  0  0  0  0  0  0  0  0  0  0
   48.0309   78.7025   50.5482 O   0  0  0  0  0  0  0  0  0  0  0  0
   47.4733   78.9089   48.9214 N   0  0  0  0  0  0  0  0  0  0  0  0
   47.5512   78.7058   47.9612 H   0  0  0  0  0  0  0  0  0  0  0  0
   46.7576   79.5276   49.2452 C   0  0  0  0  0  0  0  0  0  0  0  0
   45.8064   79.2203   49.2741 C   0  0  0  0  0  0  0  0  0  0  0  0
   45.2152   79.4948   50.0325 O   0  0  0  0  0  0  0  0  0  0  0  0
   45.4465   78.6384   48.5448 N   0  0  0  0  0  0  0  0  0  0  0  0
   46.0286   78.3682   47.7982 H   0  0  0  0  0  0  0  0  0  0  0  0
   44.4954   78.3311   48.5738 C   0  0  0  0  0  0  0  0  0  0  0  0
   44.2739   77.4233   48.9299 C   0  0  0  0  0  0  0  0  0  0  0  0
   44.7097   76.6127   48.5386 O   0  0  0  0  0  0  0  0  0  0  0  0
   43.6167   77.3260   49.6772 N   0  0  0  0  0  0  0  0  0  0  0  0
   43.1876   78.1240   50.0624 H   0  0  0  0  0  0  0  0  0  0  0  0
   43.3952   76.4182   50.0334 C   0  0  0  0  0  0  0  0  0  0  0  0
   43.9703   76.0038   50.7387 C   0  0  0  0  0  0  0  0  0  0  0  0
   44.5314   75.2052   50.5210 O   0  0  0  0  0  0  0  0  0  0  0  0
   43.9844   76.3881   51.6619 N   0  0  0  0  0  0  0  0  0  0  0  0
   43.4620   77.1805   51.9766 C   0  0  0  0  0  0  0  0  0  0  0  0
   43.6781   77.3295   52.9416 C   0  0  0  0  0  0  0  0  0  0  0  0
   44.3341   76.6292   53.2231 C   0  0  0  0  0  0  0  0  0  0  0  0
   44.5234   76.0474   52.4322 C   0  0  0  0  0  0  0  0  0  0  0  0
   45.1428   75.2626   52.4147 C   0  0  0  0  0  0  0  0  0  0  0  0
   46.1107   75.3943   52.2004 O   0  0  0  0  0  0  0  0  0  0  0  0
   44.7945   74.3461   52.6114 O   0  0  0  0  0  0  0  0  0  0  0  0
   46.4371   76.2530   52.0161 H   0  0  0  0  0  0  0  0  0  0  0  0
   42.5986   75.9247   49.6841 C   0  0  0  0  0  0  0  0  0  0  0  0
   41.6862   76.3253   49.7675 S   0  0  0  0  0  0  0  0  0  0  0  0
   41.5285   77.5413   50.3558 H   0  0  0  0  0  0  0  0  0  0  0  0
   43.7657   78.9315   48.2466 C   0  0  0  0  0  0  0  0  0  0  0  0
   43.7017   79.1569   47.2745 C   0  0  0  0  0  0  0  0  0  0  0  0
   43.3394   78.5632   46.5560 C   0  0  0  0  0  0  0  0  0  0  0  0
   43.4026   79.0549   45.6876 N   0  0  0  0  0  0  0  0  0  0  0  0
   43.8041   79.9526   45.8693 C   0  0  0  0  0  0  0  0  0  0  0  0
   43.9889   80.0156   46.8501 N   0  0  0  0  0  0  0  0  0  0  0  0
   44.3842   80.7876   47.3160 H   0  0  0  0  0  0  0  0  0  0  0  0
   46.9930   80.4538   49.5400 C   0  0  0  0  0  0  0  0  0  0  0  0
   47.0450   81.1938   48.8695 C   0  0  0  0  0  0  0  0  0  0  0  0
   47.3327   82.1080   49.1551 C   0  0  0  0  0  0  0  0  0  0  0  0
   46.8731   82.5608   49.9193 O   0  0  0  0  0  0  0  0  0  0  0  0
   48.0798   82.5693   48.6767 N   0  0  0  0  0  0  0  0  0  0  0  0
   48.5321   82.1235   47.9244 H   0  0  0  0  0  0  0  0  0  0  0  0
   48.3630   83.4693   48.9579 H   0  0  0  0  0  0  0  0  0  0  0  0
   49.1721   77.1563   49.8489 C   0  0  0  0  0  0  0  0  0  0  0  0
   48.7415   76.2537   49.8459 C   0  0  0  0  0  0  0  0  0  0  0  0
   49.2714   75.4461   50.1048 C   0  0  0  0  0  0  0  0  0  0  0  0
   48.8113   74.5688   50.2412 C   0  0  0  0  0  0  0  0  0  0  0  0
   48.6996   73.9381   49.4733 N   0  0  0  0  0  0  0  0  0  0  0  0
   49.0551   74.1896   48.5509 H   0  0  0  0  0  0  0  0  0  0  0  0
   48.2303   73.0432   49.6124 H   0  0  0  0  0  0  0  0  0  0  0  0
   50.6161   76.9071   46.4173 C   0  0  0  0  0  0  0  0  0  0  0  0
   51.3523   76.6166   47.0287 O   0  0  0  0  0  0  0  0  0  0  0  0
   50.1901   77.8036   46.5384 N   0  0  0  0  0  0  0  0  0  0  0  0
   49.4654   78.0896   45.9365 H   0  0  0  0  0  0  0  0  0  0  0  0
   50.3061   76.3010   45.6848 C   0  0  0  0  0  0  0  0  0  0  0  0
   48.8499   75.4172   45.9983 C   0  0  0  0  0  0  0  0  0  0  0  0
   49.3503   74.8124   46.6178 O   0  0  0  0  0  0  0  0  0  0  0  0
   49.3278   76.1614   45.5317 N   0  0  0  0  0  0  0  0  0  0  0  0
   48.8352   76.7568   44.9217 H   0  0  0  0  0  0  0  0  0  0  0  0
   47.8716   75.2776   45.8452 C   0  0  0  0  0  0  0  0  0  0  0  0
   47.0014   74.2945   44.7155 C   0  0  0  0  0  0  0  0  0  0  0  0
   46.8187   73.6269   45.4372 O   0  0  0  0  0  0  0  0  0  0  0  0
   47.5279   75.1199   44.9195 N   0  0  0  0  0  0  0  0  0  0  0  0
   47.7078   75.7772   44.2090 H   0  0  0  0  0  0  0  0  0  0  0  0
   46.6576   74.1368   43.7898 C   0  0  0  0  0  0  0  0  0  0  0  0
   46.5480   73.2029   43.4495 C   0  0  0  0  0  0  0  0  0  0  0  0
   45.4722   75.0701   42.9392 C   0  0  0  0  0  0  0  0  0  0  0  0
   44.7551   74.4511   43.2594 O   0  0  0  0  0  0  0  0  0  0  0  0
   46.4235   74.9130   43.2044 N   0  0  0  0  0  0  0  0  0  0  0  0
   47.1295   75.5224   42.8891 H   0  0  0  0  0  0  0  0  0  0  0  0
   45.2379   75.8463   42.3537 C   0  0  0  0  0  0  0  0  0  0  0  0
   45.5706   77.4873   42.7970 C   0  0  0  0  0  0  0  0  0  0  0  0
   44.7082   77.5257   43.3018 O   0  0  0  0  0  0  0  0  0  0  0  0
   45.8354   76.6476   42.3230 N   0  0  0  0  0  0  0  0  0  0  0  0
   46.6844   76.6097   41.8260 H   0  0  0  0  0  0  0  0  0  0  0  0
   46.1681   78.2886   42.7663 C   0  0  0  0  0  0  0  0  0  0  0  0
   47.2185   78.6312   44.1001 C   0  0  0  0  0  0  0  0  0  0  0  0
   47.8729   77.9569   43.7581 O   0  0  0  0  0  0  0  0  0  0  0  0
   46.3661   78.7971   43.6042 N   0  0  0  0  0  0  0  0  0  0  0  0
   45.7218   79.4610   43.9410 H   0  0  0  0  0  0  0  0  0  0  0  0
   47.2552   78.7166   45.8297 N   0  0  0  0  0  0  0  0  0  0  0  0
   47.4165   79.1398   44.9382 C   0  0  0  0  0  0  0  0  0  0  0  0
   47.4571   79.2352   46.6845 H   0  0  0  0  0  0  0  0  0  0  0  0
   46.8887   77.7662   45.8843 H   0  0  0  0  0  0  0  0  0  0  0  0
   47.7757   80.0715   44.8846 C   0  0  0  0  0  0  0  0  0  0  0  0
   48.6119   80.2561   44.3681 O   0  0  0  0  0  0  0  0  0  0  0  0
   47.2987   80.8186   45.3475 C   0  0  0  0  0  0  0  0  0  0  0  0
   49.0745   79.5313   43.9191 H   0  0  0  0  0  0  0  0  0  0  0  0
   46.5676   78.5814   41.8976 C   0  0  0  0  0  0  0  0  0  0  0  0
   46.1767   79.3583   41.4042 C   0  0  0  0  0  0  0  0  0  0  0  0
   46.5616   79.6367   40.5241 C   0  0  0  0  0  0  0  0  0  0  0  0
   46.1622   79.2954   39.6733 O   0  0  0  0  0  0  0  0  0  0  0  0
   47.3460   80.2564   40.4951 N   0  0  0  0  0  0  0  0  0  0  0  0
   47.7391   80.5923   41.3328 H   0  0  0  0  0  0  0  0  0  0  0  0
   47.7249   80.5304   39.6288 H   0  0  0  0  0  0  0  0  0  0  0  0
   44.4063   75.8212   41.7991 C   0  0  0  0  0  0  0  0  0  0  0  0
   44.4693   75.6986   40.8086 C   0  0  0  0  0  0  0  0  0  0  0  0
   43.7360   76.0316   40.2159 C   0  0  0  0  0  0  0  0  0  0  0  0
   43.7372   76.9820   39.9049 O   0  0  0  0  0  0  0  0  0  0  0  0
   43.0015   75.4142   39.9342 N   0  0  0  0  0  0  0  0  0  0  0  0
   43.0004   74.4785   40.2403 H   0  0  0  0  0  0  0  0  0  0  0  0
   42.2795   75.7421   39.3506 H   0  0  0  0  0  0  0  0  0  0  0  0
   47.2371   75.2957   46.6179 C   0  0  0  0  0  0  0  0  0  0  0  0
   46.9608   76.1697   47.0176 O   0  0  0  0  0  0  0  0  0  0  0  0
   46.3453   76.1873   47.7671 H   0  0  0  0  0  0  0  0  0  0  0  0
   50.9745   75.8345   45.1053 C   0  0  0  0  0  0  0  0  0  0  0  0
   51.1382   76.1557   44.1726 C   0  0  0  0  0  0  0  0  0  0  0  0
   51.4097   75.5889   43.3949 C   0  0  0  0  0  0  0  0  0  0  0  0
   51.4985   76.1830   42.5954 N   0  0  0  0  0  0  0  0  0  0  0  0
   51.2819   77.1172   42.8792 C   0  0  0  0  0  0  0  0  0  0  0  0
   51.0593   77.1003   43.8539 N   0  0  0  0  0  0  0  0  0  0  0  0
   50.8067   77.8772   44.4033 H   0  0  0  0  0  0  0  0  0  0  0  0
 95 96  1  0  0  0
 95 97  1  0  0  0
 95 98  1  0  0  0
 96 91  1  0  0  0
 96 99  1  0  0  0
 91 92  2  0  0  0
 91 93  1  0  0  0
 93 90  1  0  0  0
 93 94  1  0  0  0
 90103  1  0  0  0
 90 86  1  0  0  0
103104  1  0  0  0
104105  1  0  0  0
105106  2  0  0  0
105107  1  0  0  0
107108  1  0  0  0
107109  1  0  0  0
 86 87  2  0  0  0
 86 88  1  0  0  0
 88 85  1  0  0  0
 88 89  1  0  0  0
 85110  1  0  0  0
 85 81  1  0  0  0
110111  1  0  0  0
111112  1  0  0  0
112113  2  0  0  0
112114  1  0  0  0
114115  1  0  0  0
114116  1  0  0  0
 81 82  2  0  0  0
 81 83  1  0  0  0
 83 79  1  0  0  0
 83 84  1  0  0  0
 79 80  1  0  0  0
 79 75  1  0  0  0
 75 76  2  0  0  0
 75 77  1  0  0  0
 77 74  1  0  0  0
 77 78  1  0  0  0
 74117  1  0  0  0
 74 70  1  0  0  0
117118  1  0  0  0
118119  1  0  0  0
 70 71  2  0  0  0
 70 72  1  0  0  0
 72 69  1  0  0  0
 72 73  1  0  0  0
 69120  1  0  0  0
 69 65  1  0  0  0
120121  1  0  0  0
121125  1  0  0  0
121122  2  0  0  0
122123  1  0  0  0
123124  2  0  0  0
124125  1  0  0  0
125126  1  0  0  0
 65 66  2  0  0  0
 65 67  1  0  0  0
 67  1  1  0  0  0
 67 68  1  0  0  0
  1  2  1  0  0  0
  1 10  1  0  0  0
  2  8  2  0  0  0
  2  3  1  0  0  0
  3  4  2  0  0  0
  4  5  1  0  0  0
  5  6  1  0  0  0
  5  7  2  0  0  0
  6  9  1  0  0  0
  7  8  1  0  0  0
 10 11  2  0  0  0
 10 12  1  0  0  0
 12 14  1  0  0  0
 12 13  1  0  0  0
 14 58  1  0  0  0
 14 15  1  0  0  0
 58 59  1  0  0  0
 59 60  1  0  0  0
 60 61  1  0  0  0
 61 62  1  0  0  0
 62 63  1  0  0  0
 62 64  1  0  0  0
 15 16  2  0  0  0
 15 17  1  0  0  0
 17 19  1  0  0  0
 17 18  1  0  0  0
 19 51  1  0  0  0
 19 20  1  0  0  0
 51 52  1  0  0  0
 52 53  1  0  0  0
 53 54  2  0  0  0
 53 55  1  0  0  0
 55 56  1  0  0  0
 55 57  1  0  0  0
 20 21  2  0  0  0
 20 22  1  0  0  0
 22 24  1  0  0  0
 22 23  1  0  0  0
 24 44  1  0  0  0
 24 25  1  0  0  0
 44 45  1  0  0  0
 45 49  1  0  0  0
 45 46  2  0  0  0
 46 47  1  0  0  0
 47 48  2  0  0  0
 48 49  1  0  0  0
 49 50  1  0  0  0
 25 26  2  0  0  0
 25 27  1  0  0  0
 27 29  1  0  0  0
 27 28  1  0  0  0
 29 41  1  0  0  0
 29 30  1  0  0  0
 41 42  1  0  0  0
 42 43  1  0  0  0
 30 31  2  0  0  0
 30 32  1  0  0  0
 32 36  1  0  0  0
 32 33  1  0  0  0
 33 34  1  0  0  0
 34 35  1  0  0  0
 35 36  1  0  0  0
 36 37  1  0  0  0
 37 38  1  0  0  0
 37 39  2  0  0  0
 38 40  1  0  0  0
 99100  1  0  0  0
 99101  1  0  0  0
100102  1  0  0  0
M  END
> <minimizedAffinity>
-6.69071

$$$$



126129  0  0  0  0  0  0  0  0999 V2000
   39.4849  100.3753   46.4332 C   0  0  0  0  0  0  0  0  0  0  0  0
   40.4004  100.0778   46.7040 C   0  0  0  0  0  0  0  0  0  0  0  0
   40.7089   99.1511   46.4892 C   0  0  0  0  0  0  0  0  0  0  0  0
   41.6245   98.8536   46.7600 C   0  0  0  0  0  0  0  0  0  0  0  0
   42.2314   99.4827   47.2456 C   0  0  0  0  0  0  0  0  0  0  0  0
   43.1469   99.1851   47.5164 O   0  0  0  0  0  0  0  0  0  0  0  0
   41.9229  100.4093   47.4604 C   0  0  0  0  0  0  0  0  0  0  0  0
   41.0074  100.7069   47.1896 C   0  0  0  0  0  0  0  0  0  0  0  0
   43.4360   98.3169   47.3151 H   0  0  0  0  0  0  0  0  0  0  0  0
   39.3752  101.0830   45.7353 C   0  0  0  0  0  0  0  0  0  0  0  0
   39.5955  100.8823   44.7808 O   0  0  0  0  0  0  0  0  0  0  0  0
   39.0453  101.9914   45.9919 N   0  0  0  0  0  0  0  0  0  0  0  0
   38.8284  102.1891   46.9317 H   0  0  0  0  0  0  0  0  0  0  0  0
   38.9356  102.6992   45.2939 C   0  0  0  0  0  0  0  0  0  0  0  0
   38.0278  102.9043   44.9281 C   0  0  0  0  0  0  0  0  0  0  0  0
   37.2616  103.0617   45.5511 O   0  0  0  0  0  0  0  0  0  0  0  0
   37.8862  102.9518   43.9393 N   0  0  0  0  0  0  0  0  0  0  0  0
   38.6405  102.7968   43.3261 H   0  0  0  0  0  0  0  0  0  0  0  0
   36.9784  103.1569   43.5735 C   0  0  0  0  0  0  0  0  0  0  0  0
   36.7348  104.0979   43.3387 C   0  0  0  0  0  0  0  0  0  0  0  0
   35.9599  104.5411   43.7894 O   0  0  0  0  0  0  0  0  0  0  0  0
   37.2662  104.5958   42.6533 N   0  0  0  0  0  0  0  0  0  0  0  0
   38.0291  104.1594   42.2096 H   0  0  0  0  0  0  0  0  0  0  0  0
   37.0226  105.5368   42.4185 C   0  0  0  0  0  0  0  0  0  0  0  0
   37.5666  106.2973   42.7728 C   0  0  0  0  0  0  0  0  0  0  0  0
   38.5526  106.3261   42.6082 O   0  0  0  0  0  0  0  0  0  0  0  0
   37.1248  107.0290   43.2918 N   0  0  0  0  0  0  0  0  0  0  0  0
   36.1542  107.0006   43.4539 H   0  0  0  0  0  0  0  0  0  0  0  0
   37.6688  107.7896   43.6462 C   0  0  0  0  0  0  0  0  0  0  0  0
   37.9120  107.8214   44.6156 C   0  0  0  0  0  0  0  0  0  0  0  0
   38.8727  107.8681   44.8889 O   0  0  0  0  0  0  0  0  0  0  0  0
   37.1942  107.8065   45.3119 N   0  0  0  0  0  0  0  0  0  0  0  0
   36.2101  107.7611   45.1405 C   0  0  0  0  0  0  0  0  0  0  0  0
   35.7423  107.7609   46.0244 C   0  0  0  0  0  0  0  0  0  0  0  0
   36.4374  107.8063   46.7419 C   0  0  0  0  0  0  0  0  0  0  0  0
   37.3347  107.8344   46.3015 C   0  0  0  0  0  0  0  0  0  0  0  0
   38.2175  107.8822   46.7687 C   0  0  0  0  0  0  0  0  0  0  0  0
   38.6816  107.0415   47.0479 O   0  0  0  0  0  0  0  0  0  0  0  0
   38.6363  108.7706   46.9568 O   0  0  0  0  0  0  0  0  0  0  0  0
   38.2892  106.2091   46.8717 H   0  0  0  0  0  0  0  0  0  0  0  0
   37.9698  108.5183   43.0310 C   0  0  0  0  0  0  0  0  0  0  0  0
   37.3305  109.2364   42.7560 S   0  0  0  0  0  0  0  0  0  0  0  0
   36.0517  109.2220   43.2186 H   0  0  0  0  0  0  0  0  0  0  0  0
   36.2350  105.7173   41.8293 C   0  0  0  0  0  0  0  0  0  0  0  0
   36.3213  105.6263   40.8373 C   0  0  0  0  0  0  0  0  0  0  0  0
   36.0348  104.8384   40.2921 C   0  0  0  0  0  0  0  0  0  0  0  0
   36.2458  105.0323   39.3341 N   0  0  0  0  0  0  0  0  0  0  0  0
   36.6628  105.9401   39.2870 C   0  0  0  0  0  0  0  0  0  0  0  0
   36.7095  106.3071   40.2162 N   0  0  0  0  0  0  0  0  0  0  0  0
   37.0736  107.1847   40.4740 H   0  0  0  0  0  0  0  0  0  0  0  0
   36.3142  102.4209   43.4425 C   0  0  0  0  0  0  0  0  0  0  0  0
   36.4785  101.7160   42.7525 C   0  0  0  0  0  0  0  0  0  0  0  0
   35.8882  100.9100   42.7107 C   0  0  0  0  0  0  0  0  0  0  0  0
   35.0799  100.9122   42.1218 O   0  0  0  0  0  0  0  0  0  0  0  0
   36.1061  100.1017   43.2577 N   0  0  0  0  0  0  0  0  0  0  0  0
   36.9018  100.0996   43.8374 H   0  0  0  0  0  0  0  0  0  0  0  0
   35.5249   99.3081   43.2165 H   0  0  0  0  0  0  0  0  0  0  0  0
   39.7337  103.2019   44.9618 C   0  0  0  0  0  0  0  0  0  0  0  0
   40.0999  103.9660   45.4930 C   0  0  0  0  0  0  0  0  0  0  0  0
   40.9730  104.3805   45.2361 C   0  0  0  0  0  0  0  0  0  0  0  0
   41.0692  105.3757   45.2227 C   0  0  0  0  0  0  0  0  0  0  0  0
   41.2123  105.8758   46.0768 N   0  0  0  0  0  0  0  0  0  0  0  0
   41.2601  105.3706   46.9617 H   0  0  0  0  0  0  0  0  0  0  0  0
   41.3105  106.8909   46.0632 H   0  0  0  0  0  0  0  0  0  0  0  0
   38.0328   99.4397   46.3072 C   0  0  0  0  0  0  0  0  0  0  0  0
   38.1922   99.3243   45.3267 O   0  0  0  0  0  0  0  0  0  0  0  0
   38.6791   99.9652   46.8604 N   0  0  0  0  0  0  0  0  0  0  0  0
   38.5221  100.0789   47.8256 H   0  0  0  0  0  0  0  0  0  0  0  0
   37.2270   99.0296   46.7344 C   0  0  0  0  0  0  0  0  0  0  0  0
   37.1370   97.3133   46.5195 C   0  0  0  0  0  0  0  0  0  0  0  0
   37.9153   97.1952   47.1361 O   0  0  0  0  0  0  0  0  0  0  0  0
   36.7928   98.2305   46.3186 N   0  0  0  0  0  0  0  0  0  0  0  0
   36.0265   98.3467   45.7115 H   0  0  0  0  0  0  0  0  0  0  0  0
   36.7028   96.5142   46.1038 C   0  0  0  0  0  0  0  0  0  0  0  0
   35.9031   96.3773   44.5735 C   0  0  0  0  0  0  0  0  0  0  0  0
   35.0196   96.5070   45.0236 O   0  0  0  0  0  0  0  0  0  0  0  0
   36.7447   96.3809   45.1136 N   0  0  0  0  0  0  0  0  0  0  0  0
   37.6145   96.2532   44.6705 H   0  0  0  0  0  0  0  0  0  0  0  0
   35.9450   96.2440   43.5833 C   0  0  0  0  0  0  0  0  0  0  0  0
   35.3325   96.7585   42.9832 C   0  0  0  0  0  0  0  0  0  0  0  0
   36.2765   94.7357   42.7990 C   0  0  0  0  0  0  0  0  0  0  0  0
   35.2994   94.5231   42.7949 O   0  0  0  0  0  0  0  0  0  0  0  0
   36.5993   95.5962   43.1932 N   0  0  0  0  0  0  0  0  0  0  0  0
   37.5613   95.8055   43.1973 H   0  0  0  0  0  0  0  0  0  0  0  0
   36.9309   94.0878   42.4089 C   0  0  0  0  0  0  0  0  0  0  0  0
   38.1048   93.3102   43.4175 C   0  0  0  0  0  0  0  0  0  0  0  0
   37.4195   92.6376   43.6965 O   0  0  0  0  0  0  0  0  0  0  0  0
   37.8605   94.0353   42.7737 N   0  0  0  0  0  0  0  0  0  0  0  0
   38.5352   94.6976   42.4990 H   0  0  0  0  0  0  0  0  0  0  0  0
   39.0344   93.2577   43.7823 C   0  0  0  0  0  0  0  0  0  0  0  0
   39.6015   94.4911   44.8580 C   0  0  0  0  0  0  0  0  0  0  0  0
   39.1227   94.0495   45.6168 O   0  0  0  0  0  0  0  0  0  0  0  0
   39.5574   94.0952   43.9408 N   0  0  0  0  0  0  0  0  0  0  0  0
   40.0288   94.5299   43.1937 H   0  0  0  0  0  0  0  0  0  0  0  0
   39.8044   96.1971   44.6381 N   0  0  0  0  0  0  0  0  0  0  0  0
   40.1245   95.3286   45.0165 C   0  0  0  0  0  0  0  0  0  0  0  0
   40.3377   97.0514   44.7996 H   0  0  0  0  0  0  0  0  0  0  0  0
   38.9444   96.2287   44.0904 H   0  0  0  0  0  0  0  0  0  0  0  0
   40.9676   95.2976   45.5533 C   0  0  0  0  0  0  0  0  0  0  0  0
   41.8390   95.0986   45.1048 O   0  0  0  0  0  0  0  0  0  0  0  0
   40.9394   95.4656   46.5387 C   0  0  0  0  0  0  0  0  0  0  0  0
   41.8663   94.9357   44.1489 H   0  0  0  0  0  0  0  0  0  0  0  0
   39.4411   92.3678   43.9886 C   0  0  0  0  0  0  0  0  0  0  0  0
   40.1412   91.9860   43.3852 C   0  0  0  0  0  0  0  0  0  0  0  0
   40.5484   91.0963   43.5919 C   0  0  0  0  0  0  0  0  0  0  0  0
   40.1818   90.2680   43.1681 O   0  0  0  0  0  0  0  0  0  0  0  0
   41.3222   91.0350   44.2223 N   0  0  0  0  0  0  0  0  0  0  0  0
   41.6831   91.8504   44.6394 H   0  0  0  0  0  0  0  0  0  0  0  0
   41.7231   90.1591   44.4257 H   0  0  0  0  0  0  0  0  0  0  0  0
   36.6556   93.4925   41.6541 C   0  0  0  0  0  0  0  0  0  0  0  0
   36.8880   93.7384   40.7131 C   0  0  0  0  0  0  0  0  0  0  0  0
   36.7636   93.0729   39.9772 C   0  0  0  0  0  0  0  0  0  0  0  0
   36.6806   92.0997   40.1919 O   0  0  0  0  0  0  0  0  0  0  0  0
   36.7222   93.3805   39.0265 N   0  0  0  0  0  0  0  0  0  0  0  0
   36.8039   94.3385   38.8152 H   0  0  0  0  0  0  0  0  0  0  0  0
   36.5998   92.7252   38.3020 H   0  0  0  0  0  0  0  0  0  0  0  0
   36.2267   95.8483   46.6782 C   0  0  0  0  0  0  0  0  0  0  0  0
   36.6108   94.9341   46.8073 O   0  0  0  0  0  0  0  0  0  0  0  0
   36.1490   94.2883   47.3646 H   0  0  0  0  0  0  0  0  0  0  0  0
   36.8554   99.4187   47.5774 C   0  0  0  0  0  0  0  0  0  0  0  0
   35.8823   99.6406   47.6391 C   0  0  0  0  0  0  0  0  0  0  0  0
   35.3727  100.2293   47.0117 C   0  0  0  0  0  0  0  0  0  0  0  0
   34.4233  100.2654   47.3240 N   0  0  0  0  0  0  0  0  0  0  0  0
   34.3463   99.6989   48.1445 C   0  0  0  0  0  0  0  0  0  0  0  0
   35.2479   99.3128   48.3392 N   0  0  0  0  0  0  0  0  0  0  0  0
   35.4718   98.7148   49.0886 H   0  0  0  0  0  0  0  0  0  0  0  0
 95 96  1  0  0  0
 95 97  1  0  0  0
 95 98  1  0  0  0
 96 91  1  0  0  0
 96 99  1  0  0  0
 91 92  2  0  0  0
 91 93  1  0  0  0
 93 90  1  0  0  0
 93 94  1  0  0  0
 90103  1  0  0  0
 90 86  1  0  0  0
103104  1  0  0  0
104105  1  0  0  0
105106  2  0  0  0
105107  1  0  0  0
107108  1  0  0  0
107109  1  0  0  0
 86 87  2  0  0  0
 86 88  1  0  0  0
 88 85  1  0  0  0
 88 89  1  0  0  0
 85110  1  0  0  0
 85 81  1  0  0  0
110111  1  0  0  0
111112  1  0  0  0
112113  2  0  0  0
112114  1  0  0  0
114115  1  0  0  0
114116  1  0  0  0
 81 82  2  0  0  0
 81 83  1  0  0  0
 83 79  1  0  0  0
 83 84  1  0  0  0
 79 80  1  0  0  0
 79 75  1  0  0  0
 75 76  2  0  0  0
 75 77  1  0  0  0
 77 74  1  0  0  0
 77 78  1  0  0  0
 74117  1  0  0  0
 74 70  1  0  0  0
117118  1  0  0  0
118119  1  0  0  0
 70 71  2  0  0  0
 70 72  1  0  0  0
 72 69  1  0  0  0
 72 73  1  0  0  0
 69120  1  0  0  0
 69 65  1  0  0  0
120121  1  0  0  0
121125  1  0  0  0
121122  2  0  0  0
122123  1  0  0  0
123124  2  0  0  0
124125  1  0  0  0
125126  1  0  0  0
 65 66  2  0  0  0
 65 67  1  0  0  0
 67  1  1  0  0  0
 67 68  1  0  0  0
  1  2  1  0  0  0
  1 10  1  0  0  0
  2  8  2  0  0  0
  2  3  1  0  0  0
  3  4  2  0  0  0
  4  5  1  0  0  0
  5  6  1  0  0  0
  5  7  2  0  0  0
  6  9  1  0  0  0
  7  8  1  0  0  0
 10 11  2  0  0  0
 10 12  1  0  0  0
 12 14  1  0  0  0
 12 13  1  0  0  0
 14 58  1  0  0  0
 14 15  1  0  0  0
 58 59  1  0  0  0
 59 60  1  0  0  0
 60 61  1  0  0  0
 61 62  1  0  0  0
 62 63  1  0  0  0
 62 64  1  0  0  0
 15 16  2  0  0  0
 15 17  1  0  0  0
 17 19  1  0  0  0
 17 18  1  0  0  0
 19 51  1  0  0  0
 19 20  1  0  0  0
 51 52  1  0  0  0
 52 53  1  0  0  0
 53 54  2  0  0  0
 53 55  1  0  0  0
 55 56  1  0  0  0
 55 57  1  0  0  0
 20 21  2  0  0  0
 20 22  1  0  0  0
 22 24  1  0  0  0
 22 23  1  0  0  0
 24 44  1  0  0  0
 24 25  1  0  0  0
 44 45  1  0  0  0
 45 49  1  0  0  0
 45 46  2  0  0  0
 46 47  1  0  0  0
 47 48  2  0  0  0
 48 49  1  0  0  0
 49 50  1  0  0  0
 25 26  2  0  0  0
 25 27  1  0  0  0
 27 29  1  0  0  0
 27 28  1  0  0  0
 29 41  1  0  0  0
 29 30  1  0  0  0
 41 42  1  0  0  0
 42 43  1  0  0  0
 30 31  2  0  0  0
 30 32  1  0  0  0
 32 36  1  0  0  0
 32 33  1  0  0  0
 33 34  1  0  0  0
 34 35  1  0  0  0
 35 36  1  0  0  0
 36 37  1  0  0  0
 37 38  1  0  0  0
 37 39  2  0  0  0
 38 40  1  0  0  0
 99100  1  0  0  0
 99101  1  0  0  0
100102  1  0  0  0
M  END
> <minimizedAffinity>
-6.66978

$$$$



126129  0  0  0  0  0  0  0  0999 V2000
   38.1297  104.1497   43.9875 C   0  0  0  0  0  0  0  0  0  0  0  0
   38.7240  104.7705   44.4987 C   0  0  0  0  0  0  0  0  0  0  0  0
   39.3626  105.3660   44.0113 C   0  0  0  0  0  0  0  0  0  0  0  0
   39.9569  105.9868   44.5226 C   0  0  0  0  0  0  0  0  0  0  0  0
   39.9127  106.0121   45.5212 C   0  0  0  0  0  0  0  0  0  0  0  0
   40.5070  106.6330   46.0325 O   0  0  0  0  0  0  0  0  0  0  0  0
   39.2741  105.4167   46.0087 C   0  0  0  0  0  0  0  0  0  0  0  0
   38.6798  104.7958   45.4975 C   0  0  0  0  0  0  0  0  0  0  0  0
   41.1053  107.1909   45.5757 H   0  0  0  0  0  0  0  0  0  0  0  0
   37.1967  104.4267   43.7577 C   0  0  0  0  0  0  0  0  0  0  0  0
   36.5623  104.6959   44.4823 O   0  0  0  0  0  0  0  0  0  0  0  0
   36.8982  104.4344   42.8034 N   0  0  0  0  0  0  0  0  0  0  0  0
   37.5227  104.1693   42.0901 H   0  0  0  0  0  0  0  0  0  0  0  0
   35.9651  104.7114   42.5736 C   0  0  0  0  0  0  0  0  0  0  0  0
   35.7807  105.6479   42.2756 C   0  0  0  0  0  0  0  0  0  0  0  0
   34.9278  106.0980   42.5403 O   0  0  0  0  0  0  0  0  0  0  0  0
   36.4491  106.1344   41.7130 N   0  0  0  0  0  0  0  0  0  0  0  0
   37.2887  105.6913   41.4524 H   0  0  0  0  0  0  0  0  0  0  0  0
   36.2646  107.0710   41.4150 C   0  0  0  0  0  0  0  0  0  0  0  0
   36.7613  107.8342   41.8282 C   0  0  0  0  0  0  0  0  0  0  0  0
   37.6604  108.0946   41.4764 O   0  0  0  0  0  0  0  0  0  0  0  0
   36.3590  108.3369   42.5934 N   0  0  0  0  0  0  0  0  0  0  0  0
   35.4738  108.0805   42.9398 H   0  0  0  0  0  0  0  0  0  0  0  0
   36.8557  109.1001   43.0067 C   0  0  0  0  0  0  0  0  0  0  0  0
   36.5997  110.0413   42.7862 C   0  0  0  0  0  0  0  0  0  0  0  0
   37.3088  110.7262   42.6188 O   0  0  0  0  0  0  0  0  0  0  0  0
   35.6345  110.2975   42.7331 N   0  0  0  0  0  0  0  0  0  0  0  0
   34.9364  109.6232   42.8979 H   0  0  0  0  0  0  0  0  0  0  0  0
   35.3785  111.2387   42.5127 C   0  0  0  0  0  0  0  0  0  0  0  0
   35.0867  111.4733   41.5854 C   0  0  0  0  0  0  0  0  0  0  0  0
   35.6094  112.1362   41.0495 O   0  0  0  0  0  0  0  0  0  0  0  0
   34.2721  111.0450   41.1942 N   0  0  0  0  0  0  0  0  0  0  0  0
   33.6854  110.3741   41.6477 C   0  0  0  0  0  0  0  0  0  0  0  0
   32.9520  110.1270   41.0144 C   0  0  0  0  0  0  0  0  0  0  0  0
   33.0853  110.6452   40.1697 C   0  0  0  0  0  0  0  0  0  0  0  0
   33.9012  111.2126   40.2807 C   0  0  0  0  0  0  0  0  0  0  0  0
   34.2797  111.8378   39.5982 C   0  0  0  0  0  0  0  0  0  0  0  0
   34.9431  111.5045   38.9283 O   0  0  0  0  0  0  0  0  0  0  0  0
   33.9948  112.7963   39.5856 O   0  0  0  0  0  0  0  0  0  0  0  0
   35.2101  110.6064   38.9401 H   0  0  0  0  0  0  0  0  0  0  0  0
   35.4142  111.9453   43.2195 C   0  0  0  0  0  0  0  0  0  0  0  0
   34.7783  111.9138   43.9906 S   0  0  0  0  0  0  0  0  0  0  0  0
   33.8648  110.9101   44.0781 H   0  0  0  0  0  0  0  0  0  0  0  0
   37.6085  108.9221   43.6404 C   0  0  0  0  0  0  0  0  0  0  0  0
   37.4209  108.7796   44.6122 C   0  0  0  0  0  0  0  0  0  0  0  0
   36.8621  108.0475   45.0019 C   0  0  0  0  0  0  0  0  0  0  0  0
   36.8549  108.1596   45.9955 N   0  0  0  0  0  0  0  0  0  0  0  0
   37.4093  108.9610   46.2201 C   0  0  0  0  0  0  0  0  0  0  0  0
   37.7591  109.3442   45.3651 N   0  0  0  0  0  0  0  0  0  0  0  0
   38.3353  110.1379   45.2797 H   0  0  0  0  0  0  0  0  0  0  0  0
   35.5834  107.2444   40.7037 C   0  0  0  0  0  0  0  0  0  0  0  0
   35.8673  107.3237   39.7482 C   0  0  0  0  0  0  0  0  0  0  0  0
   35.1828  107.4681   39.0335 C   0  0  0  0  0  0  0  0  0  0  0  0
   34.5202  106.7492   38.8232 O   0  0  0  0  0  0  0  0  0  0  0  0
   35.1609  108.3313   38.5293 N   0  0  0  0  0  0  0  0  0  0  0  0
   35.8133  109.0390   38.7364 H   0  0  0  0  0  0  0  0  0  0  0  0
   34.4871  108.4735   37.8257 H   0  0  0  0  0  0  0  0  0  0  0  0
   35.2166  104.0518   42.6418 C   0  0  0  0  0  0  0  0  0  0  0  0
   35.1308  103.3211   41.9644 C   0  0  0  0  0  0  0  0  0  0  0  0
   34.4930  102.5669   42.1206 C   0  0  0  0  0  0  0  0  0  0  0  0
   34.0877  102.0858   41.3433 C   0  0  0  0  0  0  0  0  0  0  0  0
   33.8290  101.1237   41.4304 N   0  0  0  0  0  0  0  0  0  0  0  0
   33.9787  100.6332   42.3122 H   0  0  0  0  0  0  0  0  0  0  0  0
   33.4155  100.6330   40.6376 H   0  0  0  0  0  0  0  0  0  0  0  0
   38.1274  102.4257   44.1546 C   0  0  0  0  0  0  0  0  0  0  0  0
   37.4477  102.4973   44.8846 O   0  0  0  0  0  0  0  0  0  0  0  0
   38.4684  103.2518   43.7060 N   0  0  0  0  0  0  0  0  0  0  0  0
   39.1375  103.1813   42.9874 H   0  0  0  0  0  0  0  0  0  0  0  0
   38.4661  101.5279   43.8731 C   0  0  0  0  0  0  0  0  0  0  0  0
   37.7608  100.6945   42.5285 C   0  0  0  0  0  0  0  0  0  0  0  0
   38.3260  101.2294   41.9005 O   0  0  0  0  0  0  0  0  0  0  0  0
   37.8309  100.8437   43.5148 N   0  0  0  0  0  0  0  0  0  0  0  0
   37.2745  100.3170   44.1331 H   0  0  0  0  0  0  0  0  0  0  0  0
   37.1257  100.0103   42.1701 C   0  0  0  0  0  0  0  0  0  0  0  0
   36.3808   98.6460   42.9343 C   0  0  0  0  0  0  0  0  0  0  0  0
   37.0588   98.0416   42.5160 O   0  0  0  0  0  0  0  0  0  0  0  0
   36.4142   99.6303   42.7613 N   0  0  0  0  0  0  0  0  0  0  0  0
   35.7468  100.2254   43.1731 H   0  0  0  0  0  0  0  0  0  0  0  0
   35.6694   98.2661   43.5255 C   0  0  0  0  0  0  0  0  0  0  0  0
   34.8468   97.8643   43.1231 C   0  0  0  0  0  0  0  0  0  0  0  0
   35.6199   97.4612   45.0583 C   0  0  0  0  0  0  0  0  0  0  0  0
   35.3480   96.6128   44.6041 O   0  0  0  0  0  0  0  0  0  0  0  0
   35.7806   98.2878   44.5190 N   0  0  0  0  0  0  0  0  0  0  0  0
   36.0483   99.1231   44.9662 H   0  0  0  0  0  0  0  0  0  0  0  0
   35.7311   97.4830   46.0519 C   0  0  0  0  0  0  0  0  0  0  0  0
   37.2678   97.0927   46.7492 C   0  0  0  0  0  0  0  0  0  0  0  0
   37.5941   98.0160   46.5467 O   0  0  0  0  0  0  0  0  0  0  0  0
   36.3363   96.8262   46.5018 N   0  0  0  0  0  0  0  0  0  0  0  0
   36.0150   95.9172   46.7011 H   0  0  0  0  0  0  0  0  0  0  0  0
   37.8730   96.4359   47.1990 C   0  0  0  0  0  0  0  0  0  0  0  0
   37.6252   94.7222   47.1563 C   0  0  0  0  0  0  0  0  0  0  0  0
   38.1347   94.6699   46.2975 O   0  0  0  0  0  0  0  0  0  0  0  0
   37.4944   95.6052   47.6071 N   0  0  0  0  0  0  0  0  0  0  0  0
   36.9928   95.6567   48.4527 H   0  0  0  0  0  0  0  0  0  0  0  0
   37.5495   93.5968   48.4708 N   0  0  0  0  0  0  0  0  0  0  0  0
   37.2466   93.8915   47.5645 C   0  0  0  0  0  0  0  0  0  0  0  0
   37.1633   92.7496   48.8871 H   0  0  0  0  0  0  0  0  0  0  0  0
   38.2447   94.1436   48.9789 H   0  0  0  0  0  0  0  0  0  0  0  0
   36.5650   93.3555   47.0663 C   0  0  0  0  0  0  0  0  0  0  0  0
   35.6732   93.7546   46.8532 O   0  0  0  0  0  0  0  0  0  0  0  0
   36.7753   92.4203   46.7813 C   0  0  0  0  0  0  0  0  0  0  0  0
   35.4693   94.6618   47.1297 H   0  0  0  0  0  0  0  0  0  0  0  0
   38.8569   96.6098   47.2408 C   0  0  0  0  0  0  0  0  0  0  0  0
   39.2768   96.9030   48.0997 C   0  0  0  0  0  0  0  0  0  0  0  0
   40.2532   97.1166   48.1316 C   0  0  0  0  0  0  0  0  0  0  0  0
   40.6208   97.6650   48.8827 O   0  0  0  0  0  0  0  0  0  0  0  0
   40.8620   96.7818   47.4124 N   0  0  0  0  0  0  0  0  0  0  0  0
   40.5001   96.2419   46.6730 H   0  0  0  0  0  0  0  0  0  0  0  0
   41.8233   96.9921   47.4438 H   0  0  0  0  0  0  0  0  0  0  0  0
   35.2371   98.1614   46.5956 C   0  0  0  0  0  0  0  0  0  0  0  0
   34.3808   97.9123   47.0480 C   0  0  0  0  0  0  0  0  0  0  0  0
   33.7658   98.6264   47.3823 C   0  0  0  0  0  0  0  0  0  0  0  0
   32.8568   98.7326   46.9791 O   0  0  0  0  0  0  0  0  0  0  0  0
   34.0597   99.2345   48.1198 N   0  0  0  0  0  0  0  0  0  0  0  0
   34.9545   99.1301   48.5168 H   0  0  0  0  0  0  0  0  0  0  0  0
   33.4542   99.9376   48.4489 H   0  0  0  0  0  0  0  0  0  0  0  0
   37.2019   99.7061   41.2206 C   0  0  0  0  0  0  0  0  0  0  0  0
   36.5697  100.0582   40.5305 O   0  0  0  0  0  0  0  0  0  0  0  0
   36.6437   99.7630   39.6094 H   0  0  0  0  0  0  0  0  0  0  0  0
   39.4400  101.3143   43.9500 C   0  0  0  0  0  0  0  0  0  0  0  0
   39.7709  100.7556   44.7105 C   0  0  0  0  0  0  0  0  0  0  0  0
   40.0238   99.7893   44.6635 C   0  0  0  0  0  0  0  0  0  0  0  0
   40.3162   99.5016   45.5755 N   0  0  0  0  0  0  0  0  0  0  0  0
   40.2439  100.2903   46.1862 C   0  0  0  0  0  0  0  0  0  0  0  0
   39.9069  101.0652   45.6515 N   0  0  0  0  0  0  0  0  0  0  0  0
   39.7386  101.9735   45.9919 H   0  0  0  0  0  0  0  0  0  0  0  0
 95 96  1  0  0  0
 95 97  1  0  0  0
 95 98  1  0  0  0
 96 91  1  0  0  0
 96 99  1  0  0  0
 91 92  2  0  0  0
 91 93  1  0  0  0
 93 90  1  0  0  0
 93 94  1  0  0  0
 90103  1  0  0  0
 90 86  1  0  0  0
103104  1  0  0  0
104105  1  0  0  0
105106  2  0  0  0
105107  1  0  0  0
107108  1  0  0  0
107109  1  0  0  0
 86 87  2  0  0  0
 86 88  1  0  0  0
 88 85  1  0  0  0
 88 89  1  0  0  0
 85110  1  0  0  0
 85 81  1  0  0  0
110111  1  0  0  0
111112  1  0  0  0
112113  2  0  0  0
112114  1  0  0  0
114115  1  0  0  0
114116  1  0  0  0
 81 82  2  0  0  0
 81 83  1  0  0  0
 83 79  1  0  0  0
 83 84  1  0  0  0
 79 80  1  0  0  0
 79 75  1  0  0  0
 75 76  2  0  0  0
 75 77  1  0  0  0
 77 74  1  0  0  0
 77 78  1  0  0  0
 74117  1  0  0  0
 74 70  1  0  0  0
117118  1  0  0  0
118119  1  0  0  0
 70 71  2  0  0  0
 70 72  1  0  0  0
 72 69  1  0  0  0
 72 73  1  0  0  0
 69120  1  0  0  0
 69 65  1  0  0  0
120121  1  0  0  0
121125  1  0  0  0
121122  2  0  0  0
122123  1  0  0  0
123124  2  0  0  0
124125  1  0  0  0
125126  1  0  0  0
 65 66  2  0  0  0
 65 67  1  0  0  0
 67  1  1  0  0  0
 67 68  1  0  0  0
  1  2  1  0  0  0
  1 10  1  0  0  0
  2  8  2  0  0  0
  2  3  1  0  0  0
  3  4  2  0  0  0
  4  5  1  0  0  0
  5  6  1  0  0  0
  5  7  2  0  0  0
  6  9  1  0  0  0
  7  8  1  0  0  0
 10 11  2  0  0  0
 10 12  1  0  0  0
 12 14  1  0  0  0
 12 13  1  0  0  0
 14 58  1  0  0  0
 14 15  1  0  0  0
 58 59  1  0  0  0
 59 60  1  0  0  0
 60 61  1  0  0  0
 61 62  1  0  0  0
 62 63  1  0  0  0
 62 64  1  0  0  0
 15 16  2  0  0  0
 15 17  1  0  0  0
 17 19  1  0  0  0
 17 18  1  0  0  0
 19 51  1  0  0  0
 19 20  1  0  0  0
 51 52  1  0  0  0
 52 53  1  0  0  0
 53 54  2  0  0  0
 53 55  1  0  0  0
 55 56  1  0  0  0
 55 57  1  0  0  0
 20 21  2  0  0  0
 20 22  1  0  0  0
 22 24  1  0  0  0
 22 23  1  0  0  0
 24 44  1  0  0  0
 24 25  1  0  0  0
 44 45  1  0  0  0
 45 49  1  0  0  0
 45 46  2  0  0  0
 46 47  1  0  0  0
 47 48  2  0  0  0
 48 49  1  0  0  0
 49 50  1  0  0  0
 25 26  2  0  0  0
 25 27  1  0  0  0
 27 29  1  0  0  0
 27 28  1  0  0  0
 29 41  1  0  0  0
 29 30  1  0  0  0
 41 42  1  0  0  0
 42 43  1  0  0  0
 30 31  2  0  0  0
 30 32  1  0  0  0
 32 36  1  0  0  0
 32 33  1  0  0  0
 33 34  1  0  0  0
 34 35  1  0  0  0
 35 36  1  0  0  0
 36 37  1  0  0  0
 37 38  1  0  0  0
 37 39  2  0  0  0
 38 40  1  0  0  0
 99100  1  0  0  0
 99101  1  0  0  0
100102  1  0  0  0
M  END
> <minimizedAffinity>
-6.65249

$$$$



126129  0  0  0  0  0  0  0  0999 V2000
   37.3944   99.9922   43.5158 C   0  0  0  0  0  0  0  0  0  0  0  0
   38.2782   99.9595   43.0491 C   0  0  0  0  0  0  0  0  0  0  0  0
   38.9344  100.7046   43.1681 C   0  0  0  0  0  0  0  0  0  0  0  0
   39.8182  100.6718   42.7014 C   0  0  0  0  0  0  0  0  0  0  0  0
   40.0458   99.8939   42.1157 C   0  0  0  0  0  0  0  0  0  0  0  0
   40.9296   99.8611   41.6490 O   0  0  0  0  0  0  0  0  0  0  0  0
   39.3896   99.1487   41.9967 C   0  0  0  0  0  0  0  0  0  0  0  0
   38.5058   99.1815   42.4634 C   0  0  0  0  0  0  0  0  0  0  0  0
   41.5445  100.5593   41.7605 H   0  0  0  0  0  0  0  0  0  0  0  0
   36.5999  100.3877   43.0548 C   0  0  0  0  0  0  0  0  0  0  0  0
   35.7012   99.9600   43.1521 O   0  0  0  0  0  0  0  0  0  0  0  0
   36.7042  101.2108   42.4966 N   0  0  0  0  0  0  0  0  0  0  0  0
   37.5890  101.6318   42.4009 H   0  0  0  0  0  0  0  0  0  0  0  0
   35.9097  101.6063   42.0356 C   0  0  0  0  0  0  0  0  0  0  0  0
   35.6016  102.5277   42.2723 C   0  0  0  0  0  0  0  0  0  0  0  0
   34.7677  102.6534   42.8096 O   0  0  0  0  0  0  0  0  0  0  0  0
   36.1275  103.3234   41.9717 N   0  0  0  0  0  0  0  0  0  0  0  0
   36.9485  103.1995   41.4428 H   0  0  0  0  0  0  0  0  0  0  0  0
   35.8194  104.2448   42.2085 C   0  0  0  0  0  0  0  0  0  0  0  0
   36.3439  104.7961   42.8572 C   0  0  0  0  0  0  0  0  0  0  0  0
   35.9811  104.9711   43.7725 O   0  0  0  0  0  0  0  0  0  0  0  0
   37.2313  105.1724   42.5907 N   0  0  0  0  0  0  0  0  0  0  0  0
   37.5885  105.0001   41.6896 H   0  0  0  0  0  0  0  0  0  0  0  0
   37.7558  105.7237   43.2395 C   0  0  0  0  0  0  0  0  0  0  0  0
   37.7787  106.7191   43.1458 C   0  0  0  0  0  0  0  0  0  0  0  0
   38.2511  107.1375   42.3702 O   0  0  0  0  0  0  0  0  0  0  0  0
   37.3291  107.2959   43.8278 N   0  0  0  0  0  0  0  0  0  0  0  0
   36.8640  106.8839   44.5914 H   0  0  0  0  0  0  0  0  0  0  0  0
   37.3520  108.2912   43.7342 C   0  0  0  0  0  0  0  0  0  0  0  0
   37.9512  108.8351   44.3217 C   0  0  0  0  0  0  0  0  0  0  0  0
   38.6864  109.3800   43.9184 O   0  0  0  0  0  0  0  0  0  0  0  0
   37.8152  108.8340   45.3124 N   0  0  0  0  0  0  0  0  0  0  0  0
   37.1120  108.3249   45.8086 C   0  0  0  0  0  0  0  0  0  0  0  0
   37.2208  108.5182   46.7837 C   0  0  0  0  0  0  0  0  0  0  0  0
   37.9912  109.1467   46.8901 C   0  0  0  0  0  0  0  0  0  0  0  0
   38.3586  109.3420   45.9808 C   0  0  0  0  0  0  0  0  0  0  0  0
   39.1333  109.9401   45.7758 C   0  0  0  0  0  0  0  0  0  0  0  0
   40.0606  109.5666   45.7512 O   0  0  0  0  0  0  0  0  0  0  0  0
   38.9807  110.9118   45.5955 O   0  0  0  0  0  0  0  0  0  0  0  0
   40.2035  108.6561   45.9201 H   0  0  0  0  0  0  0  0  0  0  0  0
   36.7756  108.7428   43.0530 C   0  0  0  0  0  0  0  0  0  0  0  0
   35.7856  108.7882   43.1867 S   0  0  0  0  0  0  0  0  0  0  0  0
   35.2231  108.2359   44.2949 H   0  0  0  0  0  0  0  0  0  0  0  0
   38.2575  105.2797   43.9819 C   0  0  0  0  0  0  0  0  0  0  0  0
   39.2178  105.0303   43.8573 C   0  0  0  0  0  0  0  0  0  0  0  0
   39.5591  104.1433   43.5461 C   0  0  0  0  0  0  0  0  0  0  0  0
   40.5577  104.1888   43.5184 N   0  0  0  0  0  0  0  0  0  0  0  0
   40.8336  105.1039   43.8126 C   0  0  0  0  0  0  0  0  0  0  0  0
   40.0054  105.6239   44.0220 N   0  0  0  0  0  0  0  0  0  0  0  0
   39.9717  106.5566   44.3353 H   0  0  0  0  0  0  0  0  0  0  0  0
   34.9868  104.6149   41.7964 C   0  0  0  0  0  0  0  0  0  0  0  0
   35.0206  105.0295   40.8871 C   0  0  0  0  0  0  0  0  0  0  0  0
   34.1766  105.1669   40.3686 C   0  0  0  0  0  0  0  0  0  0  0  0
   33.6635  104.3780   40.0303 O   0  0  0  0  0  0  0  0  0  0  0  0
   33.8458  106.0932   40.1883 N   0  0  0  0  0  0  0  0  0  0  0  0
   34.3510  106.8698   40.5213 H   0  0  0  0  0  0  0  0  0  0  0  0
   33.0149  106.2285   39.6778 H   0  0  0  0  0  0  0  0  0  0  0  0
   35.4234  101.0803   41.3379 C   0  0  0  0  0  0  0  0  0  0  0  0
   35.6728  101.1773   40.3743 C   0  0  0  0  0  0  0  0  0  0  0  0
   35.0238  100.9133   39.6608 C   0  0  0  0  0  0  0  0  0  0  0  0
   35.1862  101.1843   38.7120 C   0  0  0  0  0  0  0  0  0  0  0  0
   34.8749  102.0772   38.3868 N   0  0  0  0  0  0  0  0  0  0  0  0
   34.3918  102.7116   39.0230 H   0  0  0  0  0  0  0  0  0  0  0  0
   35.0405  102.3537   37.4191 H   0  0  0  0  0  0  0  0  0  0  0  0
   37.2784  100.2541   45.2240 C   0  0  0  0  0  0  0  0  0  0  0  0
   37.3412  101.2413   45.0770 O   0  0  0  0  0  0  0  0  0  0  0  0
   37.3050   99.6296   44.4434 N   0  0  0  0  0  0  0  0  0  0  0  0
   37.2432   98.6578   44.5881 H   0  0  0  0  0  0  0  0  0  0  0  0
   37.1890   99.8914   46.1516 C   0  0  0  0  0  0  0  0  0  0  0  0
   35.6974   99.1968   46.6925 C   0  0  0  0  0  0  0  0  0  0  0  0
   35.3449  100.1106   46.8939 O   0  0  0  0  0  0  0  0  0  0  0  0
   36.6195   99.0872   46.3214 N   0  0  0  0  0  0  0  0  0  0  0  0
   36.9667   98.1875   46.1231 H   0  0  0  0  0  0  0  0  0  0  0  0
   35.1279   98.3926   46.8622 C   0  0  0  0  0  0  0  0  0  0  0  0
   35.5776   97.0276   47.8290 C   0  0  0  0  0  0  0  0  0  0  0  0
   35.1843   97.4692   48.6354 O   0  0  0  0  0  0  0  0  0  0  0  0
   35.5494   97.4893   46.9424 N   0  0  0  0  0  0  0  0  0  0  0  0
   35.9366   97.0546   46.1485 H   0  0  0  0  0  0  0  0  0  0  0  0
   35.9991   96.1243   47.9091 C   0  0  0  0  0  0  0  0  0  0  0  0
   35.9199   95.6096   48.7628 C   0  0  0  0  0  0  0  0  0  0  0  0
   37.4906   95.6132   47.1923 C   0  0  0  0  0  0  0  0  0  0  0  0
   37.9807   95.8791   48.0224 O   0  0  0  0  0  0  0  0  0  0  0  0
   36.4998   95.7358   47.1357 N   0  0  0  0  0  0  0  0  0  0  0  0
   36.0173   95.4739   46.3184 H   0  0  0  0  0  0  0  0  0  0  0  0
   37.9914   95.2246   46.4187 C   0  0  0  0  0  0  0  0  0  0  0  0
   37.6715   95.8419   44.8324 C   0  0  0  0  0  0  0  0  0  0  0  0
   38.2442   96.6383   45.0268 O   0  0  0  0  0  0  0  0  0  0  0  0
   37.5451   95.1351   45.5283 N   0  0  0  0  0  0  0  0  0  0  0  0
   36.9812   94.3511   45.3370 H   0  0  0  0  0  0  0  0  0  0  0  0
   37.2252   95.7524   43.9420 C   0  0  0  0  0  0  0  0  0  0  0  0
   37.7787   94.6158   42.7581 C   0  0  0  0  0  0  0  0  0  0  0  0
   37.2450   93.8951   43.2005 O   0  0  0  0  0  0  0  0  0  0  0  0
   37.7688   95.5445   43.1289 N   0  0  0  0  0  0  0  0  0  0  0  0
   38.2942   96.2541   42.6933 H   0  0  0  0  0  0  0  0  0  0  0  0
   38.1112   94.8536   41.0749 N   0  0  0  0  0  0  0  0  0  0  0  0
   38.3224   94.4079   41.9449 C   0  0  0  0  0  0  0  0  0  0  0  0
   38.6657   94.6416   40.2455 H   0  0  0  0  0  0  0  0  0  0  0  0
   37.3413   95.5203   41.0171 H   0  0  0  0  0  0  0  0  0  0  0  0
   39.0771   93.7544   42.0016 C   0  0  0  0  0  0  0  0  0  0  0  0
   39.8630   93.9479   42.5889 O   0  0  0  0  0  0  0  0  0  0  0  0
   39.0459   92.9073   41.4711 C   0  0  0  0  0  0  0  0  0  0  0  0
   39.8932   94.7696   43.1036 H   0  0  0  0  0  0  0  0  0  0  0  0
   36.2352   95.8709   43.8648 C   0  0  0  0  0  0  0  0  0  0  0  0
   35.8625   96.6789   43.4085 C   0  0  0  0  0  0  0  0  0  0  0  0
   34.8881   96.7236   43.1879 C   0  0  0  0  0  0  0  0  0  0  0  0
   34.2262   96.9718   43.8952 O   0  0  0  0  0  0  0  0  0  0  0  0
   34.5756   96.5201   42.2600 N   0  0  0  0  0  0  0  0  0  0  0  0
   35.2273   96.2758   41.5637 H   0  0  0  0  0  0  0  0  0  0  0  0
   33.6164   96.5642   42.0428 H   0  0  0  0  0  0  0  0  0  0  0  0
   38.9384   94.9255   46.5356 C   0  0  0  0  0  0  0  0  0  0  0  0
   39.1656   93.9530   46.4841 C   0  0  0  0  0  0  0  0  0  0  0  0
   40.0947   93.6685   46.2482 C   0  0  0  0  0  0  0  0  0  0  0  0
   40.4934   93.9397   45.3721 O   0  0  0  0  0  0  0  0  0  0  0  0
   40.6253   93.1127   46.8883 N   0  0  0  0  0  0  0  0  0  0  0  0
   40.2327   92.8457   47.7508 H   0  0  0  0  0  0  0  0  0  0  0  0
   41.5400   92.8325   46.6560 H   0  0  0  0  0  0  0  0  0  0  0  0
   34.1369   98.4916   46.9518 C   0  0  0  0  0  0  0  0  0  0  0  0
   33.5384   98.2389   46.1916 O   0  0  0  0  0  0  0  0  0  0  0  0
   32.5770   98.3349   46.2785 H   0  0  0  0  0  0  0  0  0  0  0  0
   37.6693  100.3331   46.9096 C   0  0  0  0  0  0  0  0  0  0  0  0
   38.5757  100.0109   47.1827 C   0  0  0  0  0  0  0  0  0  0  0  0
   38.7687   99.2087   47.7475 C   0  0  0  0  0  0  0  0  0  0  0  0
   39.7606   99.1364   47.8530 N   0  0  0  0  0  0  0  0  0  0  0  0
   40.1805   99.8941   47.3533 C   0  0  0  0  0  0  0  0  0  0  0  0
   39.4481  100.4345   46.9391 N   0  0  0  0  0  0  0  0  0  0  0  0
   39.5654  101.2419   46.3881 H   0  0  0  0  0  0  0  0  0  0  0  0
 95 96  1  0  0  0
 95 97  1  0  0  0
 95 98  1  0  0  0
 96 91  1  0  0  0
 96 99  1  0  0  0
 91 92  2  0  0  0
 91 93  1  0  0  0
 93 90  1  0  0  0
 93 94  1  0  0  0
 90103  1  0  0  0
 90 86  1  0  0  0
103104  1  0  0  0
104105  1  0  0  0
105106  2  0  0  0
105107  1  0  0  0
107108  1  0  0  0
107109  1  0  0  0
 86 87  2  0  0  0
 86 88  1  0  0  0
 88 85  1  0  0  0
 88 89  1  0  0  0
 85110  1  0  0  0
 85 81  1  0  0  0
110111  1  0  0  0
111112  1  0  0  0
112113  2  0  0  0
112114  1  0  0  0
114115  1  0  0  0
114116  1  0  0  0
 81 82  2  0  0  0
 81 83  1  0  0  0
 83 79  1  0  0  0
 83 84  1  0  0  0
 79 80  1  0  0  0
 79 75  1  0  0  0
 75 76  2  0  0  0
 75 77  1  0  0  0
 77 74  1  0  0  0
 77 78  1  0  0  0
 74117  1  0  0  0
 74 70  1  0  0  0
117118  1  0  0  0
118119  1  0  0  0
 70 71  2  0  0  0
 70 72  1  0  0  0
 72 69  1  0  0  0
 72 73  1  0  0  0
 69120  1  0  0  0
 69 65  1  0  0  0
120121  1  0  0  0
121125  1  0  0  0
121122  2  0  0  0
122123  1  0  0  0
123124  2  0  0  0
124125  1  0  0  0
125126  1  0  0  0
 65 66  2  0  0  0
 65 67  1  0  0  0
 67  1  1  0  0  0
 67 68  1  0  0  0
  1  2  1  0  0  0
  1 10  1  0  0  0
  2  8  2  0  0  0
  2  3  1  0  0  0
  3  4  2  0  0  0
  4  5  1  0  0  0
  5  6  1  0  0  0
  5  7  2  0  0  0
  6  9  1  0  0  0
  7  8  1  0  0  0
 10 11  2  0  0  0
 10 12  1  0  0  0
 12 14  1  0  0  0
 12 13  1  0  0  0
 14 58  1  0  0  0
 14 15  1  0  0  0
 58 59  1  0  0  0
 59 60  1  0  0  0
 60 61  1  0  0  0
 61 62  1  0  0  0
 62 63  1  0  0  0
 62 64  1  0  0  0
 15 16  2  0  0  0
 15 17  1  0  0  0
 17 19  1  0  0  0
 17 18  1  0  0  0
 19 51  1  0  0  0
 19 20  1  0  0  0
 51 52  1  0  0  0
 52 53  1  0  0  0
 53 54  2  0  0  0
 53 55  1  0  0  0
 55 56  1  0  0  0
 55 57  1  0  0  0
 20 21  2  0  0  0
 20 22  1  0  0  0
 22 24  1  0  0  0
 22 23  1  0  0  0
 24 44  1  0  0  0
 24 25  1  0  0  0
 44 45  1  0  0  0
 45 49  1  0  0  0
 45 46  2  0  0  0
 46 47  1  0  0  0
 47 48  2  0  0  0
 48 49  1  0  0  0
 49 50  1  0  0  0
 25 26  2  0  0  0
 25 27  1  0  0  0
 27 29  1  0  0  0
 27 28  1  0  0  0
 29 41  1  0  0  0
 29 30  1  0  0  0
 41 42  1  0  0  0
 42 43  1  0  0  0
 30 31  2  0  0  0
 30 32  1  0  0  0
 32 36  1  0  0  0
 32 33  1  0  0  0
 33 34  1  0  0  0
 34 35  1  0  0  0
 35 36  1  0  0  0
 36 37  1  0  0  0
 37 38  1  0  0  0
 37 39  2  0  0  0
 38 40  1  0  0  0
 99100  1  0  0  0
 99101  1  0  0  0
100102  1  0  0  0
M  END
> <minimizedAffinity>
-6.61625

$$$$



126129  0  0  0  0  0  0  0  0999 V2000
   46.8602   73.7405   47.5867 C   0  0  0  0  0  0  0  0  0  0  0  0
   46.9920   72.9275   47.0197 C   0  0  0  0  0  0  0  0  0  0  0  0
   46.7759   72.9581   46.0438 C   0  0  0  0  0  0  0  0  0  0  0  0
   46.9078   72.1450   45.4767 C   0  0  0  0  0  0  0  0  0  0  0  0
   47.2556   71.3013   45.8855 C   0  0  0  0  0  0  0  0  0  0  0  0
   47.3874   70.4883   45.3185 O   0  0  0  0  0  0  0  0  0  0  0  0
   47.4717   71.2706   46.8614 C   0  0  0  0  0  0  0  0  0  0  0  0
   47.3399   72.0837   47.4285 C   0  0  0  0  0  0  0  0  0  0  0  0
   47.1850   70.5170   44.4041 H   0  0  0  0  0  0  0  0  0  0  0  0
   46.0820   73.7927   48.2126 C   0  0  0  0  0  0  0  0  0  0  0  0
   45.8956   73.0388   48.8426 O   0  0  0  0  0  0  0  0  0  0  0  0
   45.4904   74.5989   48.2085 N   0  0  0  0  0  0  0  0  0  0  0  0
   45.6739   75.3411   47.5883 H   0  0  0  0  0  0  0  0  0  0  0  0
   44.7121   74.6512   48.8344 C   0  0  0  0  0  0  0  0  0  0  0  0
   44.8058   75.1246   49.7103 C   0  0  0  0  0  0  0  0  0  0  0  0
   45.1975   76.0441   49.7422 O   0  0  0  0  0  0  0  0  0  0  0  0
   44.5078   74.6784   50.5542 N   0  0  0  0  0  0  0  0  0  0  0  0
   44.1222   73.7732   50.5227 H   0  0  0  0  0  0  0  0  0  0  0  0
   44.6015   75.1518   51.4300 C   0  0  0  0  0  0  0  0  0  0  0  0
   43.8123   75.6121   51.8365 C   0  0  0  0  0  0  0  0  0  0  0  0
   43.0049   75.0832   52.0979 O   0  0  0  0  0  0  0  0  0  0  0  0
   43.8304   76.6014   51.9815 N   0  0  0  0  0  0  0  0  0  0  0  0
   44.6253   77.1222   51.7242 H   0  0  0  0  0  0  0  0  0  0  0  0
   43.0412   77.0617   52.3880 C   0  0  0  0  0  0  0  0  0  0  0  0
   42.4188   77.5904   51.8109 C   0  0  0  0  0  0  0  0  0  0  0  0
   42.5658   78.5715   51.6848 O   0  0  0  0  0  0  0  0  0  0  0  0
   41.6495   77.1381   51.3598 N   0  0  0  0  0  0  0  0  0  0  0  0
   41.5048   76.1722   51.4839 H   0  0  0  0  0  0  0  0  0  0  0  0
   41.0271   77.6667   50.7827 C   0  0  0  0  0  0  0  0  0  0  0  0
   40.7627   77.3191   49.8831 C   0  0  0  0  0  0  0  0  0  0  0  0
   39.9024   76.8216   49.7724 O   0  0  0  0  0  0  0  0  0  0  0  0
   41.3586   77.4692   49.0941 N   0  0  0  0  0  0  0  0  0  0  0  0
   42.2342   77.9521   49.1023 C   0  0  0  0  0  0  0  0  0  0  0  0
   42.6002   77.9439   48.1717 C   0  0  0  0  0  0  0  0  0  0  0  0
   41.9509   77.4560   47.5885 C   0  0  0  0  0  0  0  0  0  0  0  0
   41.1835   77.1626   48.1585 C   0  0  0  0  0  0  0  0  0  0  0  0
   40.3818   76.6521   47.8476 C   0  0  0  0  0  0  0  0  0  0  0  0
   39.6355   77.1282   47.3824 O   0  0  0  0  0  0  0  0  0  0  0  0
   40.3263   75.6656   48.0019 O   0  0  0  0  0  0  0  0  0  0  0  0
   39.6874   78.0525   47.2378 H   0  0  0  0  0  0  0  0  0  0  0  0
   40.6691   78.5431   51.1051 C   0  0  0  0  0  0  0  0  0  0  0  0
   39.7445   78.5973   51.4821 S   0  0  0  0  0  0  0  0  0  0  0  0
   38.9738   77.4792   51.5563 H   0  0  0  0  0  0  0  0  0  0  0  0
   42.8744   76.9934   53.3716 C   0  0  0  0  0  0  0  0  0  0  0  0
   43.1991   77.7132   53.9851 C   0  0  0  0  0  0  0  0  0  0  0  0
   42.6261   78.3067   54.5503 C   0  0  0  0  0  0  0  0  0  0  0  0
   43.2267   78.9262   55.0556 N   0  0  0  0  0  0  0  0  0  0  0  0
   44.1711   78.7157   54.8027 C   0  0  0  0  0  0  0  0  0  0  0  0
   44.1540   77.9659   54.1411 N   0  0  0  0  0  0  0  0  0  0  0  0
   44.9394   77.5498   53.7178 H   0  0  0  0  0  0  0  0  0  0  0  0
   45.4844   75.1649   51.8994 C   0  0  0  0  0  0  0  0  0  0  0  0
   45.7652   74.3847   52.4583 C   0  0  0  0  0  0  0  0  0  0  0  0
   46.7365   74.2046   52.6136 C   0  0  0  0  0  0  0  0  0  0  0  0
   47.4019   74.3949   51.8917 O   0  0  0  0  0  0  0  0  0  0  0  0
   47.0424   73.8344   53.4907 N   0  0  0  0  0  0  0  0  0  0  0  0
   46.3872   73.6471   54.2013 H   0  0  0  0  0  0  0  0  0  0  0  0
   47.9986   73.6571   53.6436 H   0  0  0  0  0  0  0  0  0  0  0  0
   43.8403   74.2300   48.5844 C   0  0  0  0  0  0  0  0  0  0  0  0
   43.4322   74.4180   47.6910 C   0  0  0  0  0  0  0  0  0  0  0  0
   42.7826   73.7709   47.2919 C   0  0  0  0  0  0  0  0  0  0  0  0
   42.6680   73.7254   46.2995 C   0  0  0  0  0  0  0  0  0  0  0  0
   42.5523   74.5661   45.7705 N   0  0  0  0  0  0  0  0  0  0  0  0
   42.5513   75.4700   46.2431 H   0  0  0  0  0  0  0  0  0  0  0  0
   42.4353   74.5196   44.7583 H   0  0  0  0  0  0  0  0  0  0  0  0
   48.2720   74.5577   48.1688 C   0  0  0  0  0  0  0  0  0  0  0  0
   48.3913   73.8533   48.8686 O   0  0  0  0  0  0  0  0  0  0  0  0
   47.5065   74.5013   47.5279 N   0  0  0  0  0  0  0  0  0  0  0  0
   47.3891   75.1947   46.8390 H   0  0  0  0  0  0  0  0  0  0  0  0
   48.9184   75.3185   48.1100 C   0  0  0  0  0  0  0  0  0  0  0  0
   49.6689   75.6297   46.5803 C   0  0  0  0  0  0  0  0  0  0  0  0
   50.2934   74.8634   46.7308 O   0  0  0  0  0  0  0  0  0  0  0  0
   48.9813   75.8572   47.2699 N   0  0  0  0  0  0  0  0  0  0  0  0
   48.3664   76.6117   47.1218 H   0  0  0  0  0  0  0  0  0  0  0  0
   49.7318   76.1685   45.7402 C   0  0  0  0  0  0  0  0  0  0  0  0
   49.3324   75.7215   44.1152 C   0  0  0  0  0  0  0  0  0  0  0  0
   50.2940   75.5138   43.9360 O   0  0  0  0  0  0  0  0  0  0  0  0
   49.0513   76.0489   45.0173 N   0  0  0  0  0  0  0  0  0  0  0  0
   48.1046   76.2534   45.1938 H   0  0  0  0  0  0  0  0  0  0  0  0
   48.6519   75.6019   43.3923 C   0  0  0  0  0  0  0  0  0  0  0  0
   48.9034   75.1439   42.5397 C   0  0  0  0  0  0  0  0  0  0  0  0
   46.9403   75.3443   43.3295 C   0  0  0  0  0  0  0  0  0  0  0  0
   47.0928   74.4100   43.0072 O   0  0  0  0  0  0  0  0  0  0  0  0
   47.7199   75.9402   43.5220 N   0  0  0  0  0  0  0  0  0  0  0  0
   47.5698   76.8600   43.8393 H   0  0  0  0  0  0  0  0  0  0  0  0
   46.0082   75.6826   43.4592 C   0  0  0  0  0  0  0  0  0  0  0  0
   45.5972   76.7875   44.7281 C   0  0  0  0  0  0  0  0  0  0  0  0
   45.4911   76.0209   45.3613 O   0  0  0  0  0  0  0  0  0  0  0  0
   45.8557   76.6184   43.7771 N   0  0  0  0  0  0  0  0  0  0  0  0
   45.9601   77.3732   43.1536 H   0  0  0  0  0  0  0  0  0  0  0  0
   45.4446   77.7233   45.0460 C   0  0  0  0  0  0  0  0  0  0  0  0
   46.7219   78.4327   45.9762 C   0  0  0  0  0  0  0  0  0  0  0  0
   47.2622   78.5522   45.1432 O   0  0  0  0  0  0  0  0  0  0  0  0
   45.8132   78.0183   45.9275 N   0  0  0  0  0  0  0  0  0  0  0  0
   45.2812   77.9006   46.7476 H   0  0  0  0  0  0  0  0  0  0  0  0
   47.9647   79.2114   46.8977 N   0  0  0  0  0  0  0  0  0  0  0  0
   47.0904   78.7276   46.8579 C   0  0  0  0  0  0  0  0  0  0  0  0
   48.3406   79.5123   47.7969 H   0  0  0  0  0  0  0  0  0  0  0  0
   48.4806   79.4041   46.0391 H   0  0  0  0  0  0  0  0  0  0  0  0
   46.5847   78.5387   47.6996 C   0  0  0  0  0  0  0  0  0  0  0  0
   46.4492   77.5947   48.0004 O   0  0  0  0  0  0  0  0  0  0  0  0
   46.2144   79.2939   48.2405 C   0  0  0  0  0  0  0  0  0  0  0  0
   46.8085   76.8622   47.4756 H   0  0  0  0  0  0  0  0  0  0  0  0
   44.9236   78.3642   44.4823 C   0  0  0  0  0  0  0  0  0  0  0  0
   44.0515   78.7256   44.8122 C   0  0  0  0  0  0  0  0  0  0  0  0
   43.7029   79.5928   44.4565 C   0  0  0  0  0  0  0  0  0  0  0  0
   44.2537   80.1283   43.8163 O   0  0  0  0  0  0  0  0  0  0  0  0
   42.8034   79.9244   44.7409 N   0  0  0  0  0  0  0  0  0  0  0  0
   42.2611   79.3971   45.3711 H   0  0  0  0  0  0  0  0  0  0  0  0
   42.4602   80.7780   44.3907 H   0  0  0  0  0  0  0  0  0  0  0  0
   45.2287   75.0852   43.2711 C   0  0  0  0  0  0  0  0  0  0  0  0
   44.7463   75.1528   42.3978 C   0  0  0  0  0  0  0  0  0  0  0  0
   43.8467   74.7296   42.2894 C   0  0  0  0  0  0  0  0  0  0  0  0
   43.5884   73.9508   42.8611 O   0  0  0  0  0  0  0  0  0  0  0  0
   43.2054   75.0852   41.6094 N   0  0  0  0  0  0  0  0  0  0  0  0
   43.4597   75.8520   41.0467 H   0  0  0  0  0  0  0  0  0  0  0  0
   42.3198   74.6686   41.5028 H   0  0  0  0  0  0  0  0  0  0  0  0
   50.4753   76.8269   45.6231 C   0  0  0  0  0  0  0  0  0  0  0  0
   50.3293   77.7908   45.8458 O   0  0  0  0  0  0  0  0  0  0  0  0
   51.0506   78.4294   45.7321 H   0  0  0  0  0  0  0  0  0  0  0  0
   49.5018   75.5405   48.8913 C   0  0  0  0  0  0  0  0  0  0  0  0
   49.3286   76.3679   49.4254 C   0  0  0  0  0  0  0  0  0  0  0  0
   49.9164   77.1760   49.4645 C   0  0  0  0  0  0  0  0  0  0  0  0
   49.4883   77.8402   50.0776 N   0  0  0  0  0  0  0  0  0  0  0  0
   48.6360   77.4424   50.4173 C   0  0  0  0  0  0  0  0  0  0  0  0
   48.5374   76.5326   50.0143 N   0  0  0  0  0  0  0  0  0  0  0  0
   47.7920   75.9085   50.1699 H   0  0  0  0  0  0  0  0  0  0  0  0
 95 96  1  0  0  0
 95 97  1  0  0  0
 95 98  1  0  0  0
 96 91  1  0  0  0
 96 99  1  0  0  0
 91 92  2  0  0  0
 91 93  1  0  0  0
 93 90  1  0  0  0
 93 94  1  0  0  0
 90103  1  0  0  0
 90 86  1  0  0  0
103104  1  0  0  0
104105  1  0  0  0
105106  2  0  0  0
105107  1  0  0  0
107108  1  0  0  0
107109  1  0  0  0
 86 87  2  0  0  0
 86 88  1  0  0  0
 88 85  1  0  0  0
 88 89  1  0  0  0
 85110  1  0  0  0
 85 81  1  0  0  0
110111  1  0  0  0
111112  1  0  0  0
112113  2  0  0  0
112114  1  0  0  0
114115  1  0  0  0
114116  1  0  0  0
 81 82  2  0  0  0
 81 83  1  0  0  0
 83 79  1  0  0  0
 83 84  1  0  0  0
 79 80  1  0  0  0
 79 75  1  0  0  0
 75 76  2  0  0  0
 75 77  1  0  0  0
 77 74  1  0  0  0
 77 78  1  0  0  0
 74117  1  0  0  0
 74 70  1  0  0  0
117118  1  0  0  0
118119  1  0  0  0
 70 71  2  0  0  0
 70 72  1  0  0  0
 72 69  1  0  0  0
 72 73  1  0  0  0
 69120  1  0  0  0
 69 65  1  0  0  0
120121  1  0  0  0
121125  1  0  0  0
121122  2  0  0  0
122123  1  0  0  0
123124  2  0  0  0
124125  1  0  0  0
125126  1  0  0  0
 65 66  2  0  0  0
 65 67  1  0  0  0
 67  1  1  0  0  0
 67 68  1  0  0  0
  1  2  1  0  0  0
  1 10  1  0  0  0
  2  8  2  0  0  0
  2  3  1  0  0  0
  3  4  2  0  0  0
  4  5  1  0  0  0
  5  6  1  0  0  0
  5  7  2  0  0  0
  6  9  1  0  0  0
  7  8  1  0  0  0
 10 11  2  0  0  0
 10 12  1  0  0  0
 12 14  1  0  0  0
 12 13  1  0  0  0
 14 58  1  0  0  0
 14 15  1  0  0  0
 58 59  1  0  0  0
 59 60  1  0  0  0
 60 61  1  0  0  0
 61 62  1  0  0  0
 62 63  1  0  0  0
 62 64  1  0  0  0
 15 16  2  0  0  0
 15 17  1  0  0  0
 17 19  1  0  0  0
 17 18  1  0  0  0
 19 51  1  0  0  0
 19 20  1  0  0  0
 51 52  1  0  0  0
 52 53  1  0  0  0
 53 54  2  0  0  0
 53 55  1  0  0  0
 55 56  1  0  0  0
 55 57  1  0  0  0
 20 21  2  0  0  0
 20 22  1  0  0  0
 22 24  1  0  0  0
 22 23  1  0  0  0
 24 44  1  0  0  0
 24 25  1  0  0  0
 44 45  1  0  0  0
 45 49  1  0  0  0
 45 46  2  0  0  0
 46 47  1  0  0  0
 47 48  2  0  0  0
 48 49  1  0  0  0
 49 50  1  0  0  0
 25 26  2  0  0  0
 25 27  1  0  0  0
 27 29  1  0  0  0
 27 28  1  0  0  0
 29 41  1  0  0  0
 29 30  1  0  0  0
 41 42  1  0  0  0
 42 43  1  0  0  0
 30 31  2  0  0  0
 30 32  1  0  0  0
 32 36  1  0  0  0
 32 33  1  0  0  0
 33 34  1  0  0  0
 34 35  1  0  0  0
 35 36  1  0  0  0
 36 37  1  0  0  0
 37 38  1  0  0  0
 37 39  2  0  0  0
 38 40  1  0  0  0
 99100  1  0  0  0
 99101  1  0  0  0
100102  1  0  0  0
M  END
> <minimizedAffinity>
-6.57065

$$$$
