


126129  0  0  0  0  0  0  0  0999 V2000
   46.5910  107.4532   56.6732 C   0  0  0  0  0  0  0  0  0  0  0  0
   46.1253  106.7584   56.1253 C   0  0  0  0  0  0  0  0  0  0  0  0
   45.2335  106.4093   56.4133 C   0  0  0  0  0  0  0  0  0  0  0  0
   44.7678  105.7144   55.8653 C   0  0  0  0  0  0  0  0  0  0  0  0
   45.1938  105.3686   55.0293 C   0  0  0  0  0  0  0  0  0  0  0  0
   44.7281  104.6738   54.4814 O   0  0  0  0  0  0  0  0  0  0  0  0
   46.0855  105.7176   54.7413 C   0  0  0  0  0  0  0  0  0  0  0  0
   46.5513  106.4125   55.2892 C   0  0  0  0  0  0  0  0  0  0  0  0
   43.8925  104.3467   54.7513 H   0  0  0  0  0  0  0  0  0  0  0  0
   46.3295  108.4147   56.5887 C   0  0  0  0  0  0  0  0  0  0  0  0
   45.3650  108.6759   56.6289 O   0  0  0  0  0  0  0  0  0  0  0  0
   47.0324  109.1149   56.4639 N   0  0  0  0  0  0  0  0  0  0  0  0
   47.9819  108.8577   56.4243 H   0  0  0  0  0  0  0  0  0  0  0  0
   46.7709  110.0765   56.3794 C   0  0  0  0  0  0  0  0  0  0  0  0
   46.7928  110.6730   57.1816 C   0  0  0  0  0  0  0  0  0  0  0  0
   47.6695  110.9606   57.5670 O   0  0  0  0  0  0  0  0  0  0  0  0
   45.9379  110.9819   57.5985 N   0  0  0  0  0  0  0  0  0  0  0  0
   45.0748  110.6987   57.2190 H   0  0  0  0  0  0  0  0  0  0  0  0
   45.9598  111.5784   58.4008 C   0  0  0  0  0  0  0  0  0  0  0  0
   45.7892  112.5585   58.2998 C   0  0  0  0  0  0  0  0  0  0  0  0
   44.8943  112.8812   57.9916 O   0  0  0  0  0  0  0  0  0  0  0  0
   46.5136  113.2161   58.5071 N   0  0  0  0  0  0  0  0  0  0  0  0
   47.3947  112.8985   58.8106 H   0  0  0  0  0  0  0  0  0  0  0  0
   46.3430  114.1962   58.4062 C   0  0  0  0  0  0  0  0  0  0  0  0
   46.0430  114.7352   59.1932 C   0  0  0  0  0  0  0  0  0  0  0  0
   45.4781  115.5488   59.0560 O   0  0  0  0  0  0  0  0  0  0  0  0
   46.3078  114.4605   60.1176 N   0  0  0  0  0  0  0  0  0  0  0  0
   46.8640  113.6595   60.2527 H   0  0  0  0  0  0  0  0  0  0  0  0
   46.0078  114.9994   60.9047 C   0  0  0  0  0  0  0  0  0  0  0  0
   45.7578  114.5418   61.7579 C   0  0  0  0  0  0  0  0  0  0  0  0
   46.4471  114.3955   62.4674 O   0  0  0  0  0  0  0  0  0  0  0  0
   44.8183  114.2305   61.9017 N   0  0  0  0  0  0  0  0  0  0  0  0
   44.0610  114.3296   61.2562 C   0  0  0  0  0  0  0  0  0  0  0  0
   43.2460  113.9257   61.6718 C   0  0  0  0  0  0  0  0  0  0  0  0
   43.4997  113.5771   62.5741 C   0  0  0  0  0  0  0  0  0  0  0  0
   44.4714  113.7654   62.7162 C   0  0  0  0  0  0  0  0  0  0  0  0
   45.0029  113.5301   63.5298 C   0  0  0  0  0  0  0  0  0  0  0  0
   45.4704  112.6477   63.5837 O   0  0  0  0  0  0  0  0  0  0  0  0
   45.0669  114.1771   64.2897 O   0  0  0  0  0  0  0  0  0  0  0  0
   45.4105  112.0415   62.8718 H   0  0  0  0  0  0  0  0  0  0  0  0
   45.9577  115.9960   60.8385 C   0  0  0  0  0  0  0  0  0  0  0  0
   46.6335  116.5630   61.3094 S   0  0  0  0  0  0  0  0  0  0  0  0
   47.6208  115.9788   62.0399 H   0  0  0  0  0  0  0  0  0  0  0  0
   46.4725  114.6375   57.5182 C   0  0  0  0  0  0  0  0  0  0  0  0
   47.3486  114.5567   57.0427 C   0  0  0  0  0  0  0  0  0  0  0  0
   48.2011  115.0119   57.2998 C   0  0  0  0  0  0  0  0  0  0  0  0
   48.9053  114.7432   56.6428 N   0  0  0  0  0  0  0  0  0  0  0  0
   48.4881  114.1218   55.9795 C   0  0  0  0  0  0  0  0  0  0  0  0
   47.5259  114.0066   56.2267 N   0  0  0  0  0  0  0  0  0  0  0  0
   46.8688  113.4494   55.7503 H   0  0  0  0  0  0  0  0  0  0  0  0
   46.1522  111.1948   59.3040 C   0  0  0  0  0  0  0  0  0  0  0  0
   45.4208  110.7584   59.8281 C   0  0  0  0  0  0  0  0  0  0  0  0
   45.4825  110.7063   60.8248 C   0  0  0  0  0  0  0  0  0  0  0  0
   44.6573  110.5574   61.3697 O   0  0  0  0  0  0  0  0  0  0  0  0
   46.3694  110.8029   61.2766 N   0  0  0  0  0  0  0  0  0  0  0  0
   47.1817  110.9495   60.7401 H   0  0  0  0  0  0  0  0  0  0  0  0
   46.4301  110.7516   62.2579 H   0  0  0  0  0  0  0  0  0  0  0  0
   46.4875  110.4414   55.4925 C   0  0  0  0  0  0  0  0  0  0  0  0
   47.1732  110.6462   54.7939 C   0  0  0  0  0  0  0  0  0  0  0  0
   46.8874  110.9796   53.8955 C   0  0  0  0  0  0  0  0  0  0  0  0
   47.5388  111.4641   53.3116 C   0  0  0  0  0  0  0  0  0  0  0  0
   47.2256  111.9008   52.4682 N   0  0  0  0  0  0  0  0  0  0  0  0
   46.2417  111.8520   52.2037 H   0  0  0  0  0  0  0  0  0  0  0  0
   47.8900  112.3950   51.8727 H   0  0  0  0  0  0  0  0  0  0  0  0
   47.1507  107.1928   58.2915 C   0  0  0  0  0  0  0  0  0  0  0  0
   46.2559  107.4657   58.6449 O   0  0  0  0  0  0  0  0  0  0  0  0
   47.3182  107.1866   57.3057 N   0  0  0  0  0  0  0  0  0  0  0  0
   48.1991  106.9180   56.9577 H   0  0  0  0  0  0  0  0  0  0  0  0
   47.8780  106.9262   58.9240 C   0  0  0  0  0  0  0  0  0  0  0  0
   48.9496  108.1724   59.4703 C   0  0  0  0  0  0  0  0  0  0  0  0
   49.4229  108.1516   58.5896 O   0  0  0  0  0  0  0  0  0  0  0  0
   48.1772  107.5597   59.6375 N   0  0  0  0  0  0  0  0  0  0  0  0
   47.7113  107.5802   60.5045 H   0  0  0  0  0  0  0  0  0  0  0  0
   49.2489  108.8059   60.1838 C   0  0  0  0  0  0  0  0  0  0  0  0
   49.7350  108.3111   61.7709 C   0  0  0  0  0  0  0  0  0  0  0  0
   50.6710  108.1814   61.4437 O   0  0  0  0  0  0  0  0  0  0  0  0
   49.0240  108.6233   61.1410 N   0  0  0  0  0  0  0  0  0  0  0  0
   48.1025  108.7511   61.4630 H   0  0  0  0  0  0  0  0  0  0  0  0
   49.5101  108.1286   62.7280 C   0  0  0  0  0  0  0  0  0  0  0  0
   50.0847  107.5138   63.2682 C   0  0  0  0  0  0  0  0  0  0  0  0
   48.0329  108.0025   63.6234 C   0  0  0  0  0  0  0  0  0  0  0  0
   48.1547  107.0118   63.6849 O   0  0  0  0  0  0  0  0  0  0  0  0
   48.7106  108.5608   63.1450 N   0  0  0  0  0  0  0  0  0  0  0  0
   48.5906  109.5361   63.0844 H   0  0  0  0  0  0  0  0  0  0  0  0
   47.2333  108.4347   64.0404 C   0  0  0  0  0  0  0  0  0  0  0  0
   47.5497  109.5384   65.3373 C   0  0  0  0  0  0  0  0  0  0  0  0
   47.7444  108.7685   65.9450 O   0  0  0  0  0  0  0  0  0  0  0  0
   47.2941  109.3715   64.3850 N   0  0  0  0  0  0  0  0  0  0  0  0
   47.1024  110.1295   63.7867 H   0  0  0  0  0  0  0  0  0  0  0  0
   47.6105  110.4752   65.6819 C   0  0  0  0  0  0  0  0  0  0  0  0
   48.6397  111.5630   64.8116 C   0  0  0  0  0  0  0  0  0  0  0  0
   49.4431  111.1282   65.2183 O   0  0  0  0  0  0  0  0  0  0  0  0
   47.7233  111.2364   65.0434 N   0  0  0  0  0  0  0  0  0  0  0  0
   46.9323  111.6645   64.6430 H   0  0  0  0  0  0  0  0  0  0  0  0
   48.4412  113.2401   64.4269 N   0  0  0  0  0  0  0  0  0  0  0  0
   48.7525  112.3243   64.1730 C   0  0  0  0  0  0  0  0  0  0  0  0
   48.5562  114.0166   63.7757 H   0  0  0  0  0  0  0  0  0  0  0  0
   48.0085  113.3976   65.3371 H   0  0  0  0  0  0  0  0  0  0  0  0
   49.1766  112.1699   63.2807 C   0  0  0  0  0  0  0  0  0  0  0  0
   48.7580  111.5350   62.6313 O   0  0  0  0  0  0  0  0  0  0  0  0
   50.0193  112.6503   63.0378 C   0  0  0  0  0  0  0  0  0  0  0  0
   47.9405  111.0689   62.8670 H   0  0  0  0  0  0  0  0  0  0  0  0
   47.5585  110.6507   66.6650 C   0  0  0  0  0  0  0  0  0  0  0  0
   46.6944  110.9413   67.0759 C   0  0  0  0  0  0  0  0  0  0  0  0
   46.6809  111.3046   68.0076 C   0  0  0  0  0  0  0  0  0  0  0  0
   47.0239  110.7498   68.7656 O   0  0  0  0  0  0  0  0  0  0  0  0
   46.3246  112.2227   68.1811 N   0  0  0  0  0  0  0  0  0  0  0  0
   45.9870  112.7688   67.4348 H   0  0  0  0  0  0  0  0  0  0  0  0
   46.3114  112.5803   69.0982 H   0  0  0  0  0  0  0  0  0  0  0  0
   46.3729  107.9302   64.1128 C   0  0  0  0  0  0  0  0  0  0  0  0
   45.5628  108.2504   63.6219 C   0  0  0  0  0  0  0  0  0  0  0  0
   44.8305  107.6089   63.3935 C   0  0  0  0  0  0  0  0  0  0  0  0
   44.5813  106.8850   64.0368 O   0  0  0  0  0  0  0  0  0  0  0  0
   44.3474  107.6912   62.5217 N   0  0  0  0  0  0  0  0  0  0  0  0
   44.5928  108.4038   61.8884 H   0  0  0  0  0  0  0  0  0  0  0  0
   43.6265  107.0595   62.2969 H   0  0  0  0  0  0  0  0  0  0  0  0
   49.7730  109.6219   59.9402 C   0  0  0  0  0  0  0  0  0  0  0  0
   49.3232  110.5145   59.9098 O   0  0  0  0  0  0  0  0  0  0  0  0
   49.8317  111.3060   59.6734 H   0  0  0  0  0  0  0  0  0  0  0  0
   48.3060  106.0260   58.8429 C   0  0  0  0  0  0  0  0  0  0  0  0
   48.0412  105.2887   59.4643 C   0  0  0  0  0  0  0  0  0  0  0  0
   48.4836  105.0645   60.3326 C   0  0  0  0  0  0  0  0  0  0  0  0
   48.0033  104.2833   60.7315 N   0  0  0  0  0  0  0  0  0  0  0  0
   47.2641  104.0246   60.1096 C   0  0  0  0  0  0  0  0  0  0  0  0
   47.2876  104.6460   59.3264 N   0  0  0  0  0  0  0  0  0  0  0  0
   46.6761  104.6281   58.5551 H   0  0  0  0  0  0  0  0  0  0  0  0
 95 96  1  0  0  0
 95 97  1  0  0  0
 95 98  1  0  0  0
 96 91  1  0  0  0
 96 99  1  0  0  0
 91 92  2  0  0  0
 91 93  1  0  0  0
 93 90  1  0  0  0
 93 94  1  0  0  0
 90103  1  0  0  0
 90 86  1  0  0  0
103104  1  0  0  0
104105  1  0  0  0
105106  2  0  0  0
105107  1  0  0  0
107108  1  0  0  0
107109  1  0  0  0
 86 87  2  0  0  0
 86 88  1  0  0  0
 88 85  1  0  0  0
 88 89  1  0  0  0
 85110  1  0  0  0
 85 81  1  0  0  0
110111  1  0  0  0
111112  1  0  0  0
112113  2  0  0  0
112114  1  0  0  0
114115  1  0  0  0
114116  1  0  0  0
 81 82  2  0  0  0
 81 83  1  0  0  0
 83 79  1  0  0  0
 83 84  1  0  0  0
 79 80  1  0  0  0
 79 75  1  0  0  0
 75 76  2  0  0  0
 75 77  1  0  0  0
 77 74  1  0  0  0
 77 78  1  0  0  0
 74117  1  0  0  0
 74 70  1  0  0  0
117118  1  0  0  0
118119  1  0  0  0
 70 71  2  0  0  0
 70 72  1  0  0  0
 72 69  1  0  0  0
 72 73  1  0  0  0
 69120  1  0  0  0
 69 65  1  0  0  0
120121  1  0  0  0
121125  1  0  0  0
121122  2  0  0  0
122123  1  0  0  0
123124  2  0  0  0
124125  1  0  0  0
125126  1  0  0  0
 65 66  2  0  0  0
 65 67  1  0  0  0
 67  1  1  0  0  0
 67 68  1  0  0  0
  1  2  1  0  0  0
  1 10  1  0  0  0
  2  8  2  0  0  0
  2  3  1  0  0  0
  3  4  2  0  0  0
  4  5  1  0  0  0
  5  6  1  0  0  0
  5  7  2  0  0  0
  6  9  1  0  0  0
  7  8  1  0  0  0
 10 11  2  0  0  0
 10 12  1  0  0  0
 12 14  1  0  0  0
 12 13  1  0  0  0
 14 58  1  0  0  0
 14 15  1  0  0  0
 58 59  1  0  0  0
 59 60  1  0  0  0
 60 61  1  0  0  0
 61 62  1  0  0  0
 62 63  1  0  0  0
 62 64  1  0  0  0
 15 16  2  0  0  0
 15 17  1  0  0  0
 17 19  1  0  0  0
 17 18  1  0  0  0
 19 51  1  0  0  0
 19 20  1  0  0  0
 51 52  1  0  0  0
 52 53  1  0  0  0
 53 54  2  0  0  0
 53 55  1  0  0  0
 55 56  1  0  0  0
 55 57  1  0  0  0
 20 21  2  0  0  0
 20 22  1  0  0  0
 22 24  1  0  0  0
 22 23  1  0  0  0
 24 44  1  0  0  0
 24 25  1  0  0  0
 44 45  1  0  0  0
 45 49  1  0  0  0
 45 46  2  0  0  0
 46 47  1  0  0  0
 47 48  2  0  0  0
 48 49  1  0  0  0
 49 50  1  0  0  0
 25 26  2  0  0  0
 25 27  1  0  0  0
 27 29  1  0  0  0
 27 28  1  0  0  0
 29 41  1  0  0  0
 29 30  1  0  0  0
 41 42  1  0  0  0
 42 43  1  0  0  0
 30 31  2  0  0  0
 30 32  1  0  0  0
 32 36  1  0  0  0
 32 33  1  0  0  0
 33 34  1  0  0  0
 34 35  1  0  0  0
 35 36  1  0  0  0
 36 37  1  0  0  0
 37 38  1  0  0  0
 37 39  2  0  0  0
 38 40  1  0  0  0
 99100  1  0  0  0
 99101  1  0  0  0
100102  1  0  0  0
M  END
> <minimizedAffinity>
-5.33107

$$$$



126129  0  0  0  0  0  0  0  0999 V2000
   49.6582  105.2622   58.2386 C   0  0  0  0  0  0  0  0  0  0  0  0
   50.5085  104.7459   58.1366 C   0  0  0  0  0  0  0  0  0  0  0  0
   50.5423  103.9532   57.5280 C   0  0  0  0  0  0  0  0  0  0  0  0
   51.3927  103.4370   57.4260 C   0  0  0  0  0  0  0  0  0  0  0  0
   52.2093  103.7134   57.9328 C   0  0  0  0  0  0  0  0  0  0  0  0
   53.0596  103.1971   57.8309 O   0  0  0  0  0  0  0  0  0  0  0  0
   52.1755  104.5061   58.5415 C   0  0  0  0  0  0  0  0  0  0  0  0
   51.3252  105.0223   58.6434 C   0  0  0  0  0  0  0  0  0  0  0  0
   53.0912  102.4544   57.2605 H   0  0  0  0  0  0  0  0  0  0  0  0
   49.3751  105.9048   57.5266 C   0  0  0  0  0  0  0  0  0  0  0  0
   49.1489  105.5699   56.6120 O   0  0  0  0  0  0  0  0  0  0  0  0
   49.3181  106.8824   57.7294 N   0  0  0  0  0  0  0  0  0  0  0  0
   49.5408  107.2121   58.6299 H   0  0  0  0  0  0  0  0  0  0  0  0
   49.0350  107.5251   57.0175 C   0  0  0  0  0  0  0  0  0  0  0  0
   48.0834  107.8284   56.9674 C   0  0  0  0  0  0  0  0  0  0  0  0
   47.5941  108.0794   57.8025 O   0  0  0  0  0  0  0  0  0  0  0  0
   47.6212  107.8807   56.0821 N   0  0  0  0  0  0  0  0  0  0  0  0
   48.1030  107.6336   55.2600 H   0  0  0  0  0  0  0  0  0  0  0  0
   46.6697  108.1840   56.0320 C   0  0  0  0  0  0  0  0  0  0  0  0
   46.4530  109.1593   56.0733 C   0  0  0  0  0  0  0  0  0  0  0  0
   45.6547  109.4728   56.5876 O   0  0  0  0  0  0  0  0  0  0  0  0
   47.0346  109.8213   55.6004 N   0  0  0  0  0  0  0  0  0  0  0  0
   47.8205  109.5126   55.0941 H   0  0  0  0  0  0  0  0  0  0  0  0
   46.8179  110.7966   55.6417 C   0  0  0  0  0  0  0  0  0  0  0  0
   47.2295  111.3707   56.3495 C   0  0  0  0  0  0  0  0  0  0  0  0
   48.2115  111.3153   56.5297 O   0  0  0  0  0  0  0  0  0  0  0  0
   46.6590  112.0001   56.8771 N   0  0  0  0  0  0  0  0  0  0  0  0
   45.6922  112.0545   56.6997 H   0  0  0  0  0  0  0  0  0  0  0  0
   47.0706  112.5742   57.5849 C   0  0  0  0  0  0  0  0  0  0  0  0
   46.9431  112.3463   58.5502 C   0  0  0  0  0  0  0  0  0  0  0  0
   47.7330  112.1134   59.1175 O   0  0  0  0  0  0  0  0  0  0  0  0
   46.0257  112.3514   58.9482 N   0  0  0  0  0  0  0  0  0  0  0  0
   45.1771  112.5696   58.4663 C   0  0  0  0  0  0  0  0  0  0  0  0
   44.4228  112.4922   59.1183 C   0  0  0  0  0  0  0  0  0  0  0  0
   44.8053  112.2262   60.0031 C   0  0  0  0  0  0  0  0  0  0  0  0
   45.7959  112.1391   59.8980 C   0  0  0  0  0  0  0  0  0  0  0  0
   46.4431  111.8846   60.6166 C   0  0  0  0  0  0  0  0  0  0  0  0
   46.6524  110.9209   60.7825 O   0  0  0  0  0  0  0  0  0  0  0  0
   46.8810  112.5937   61.1693 O   0  0  0  0  0  0  0  0  0  0  0  0
   46.2421  110.2565   60.2647 H   0  0  0  0  0  0  0  0  0  0  0  0
   47.6097  113.3762   57.3274 C   0  0  0  0  0  0  0  0  0  0  0  0
   47.1499  114.2233   57.0614 S   0  0  0  0  0  0  0  0  0  0  0  0
   45.7913  114.2850   57.0498 H   0  0  0  0  0  0  0  0  0  0  0  0
   46.1896  111.1979   54.9751 C   0  0  0  0  0  0  0  0  0  0  0  0
   46.5089  111.4093   54.0514 C   0  0  0  0  0  0  0  0  0  0  0  0
   46.6964  112.3223   53.6888 C   0  0  0  0  0  0  0  0  0  0  0  0
   47.0000  112.2222   52.7414 N   0  0  0  0  0  0  0  0  0  0  0  0
   47.0002  111.2474   52.5182 C   0  0  0  0  0  0  0  0  0  0  0  0
   46.6967  110.7450   53.3279 N   0  0  0  0  0  0  0  0  0  0  0  0
   46.5997  109.7680   53.4000 H   0  0  0  0  0  0  0  0  0  0  0  0
   45.9348  107.5120   55.9407 C   0  0  0  0  0  0  0  0  0  0  0  0
   46.0107  106.7766   55.2673 C   0  0  0  0  0  0  0  0  0  0  0  0
   45.3335  106.0409   55.2520 C   0  0  0  0  0  0  0  0  0  0  0  0
   45.2380  105.4661   54.4392 O   0  0  0  0  0  0  0  0  0  0  0  0
   44.7519  105.8799   56.0493 N   0  0  0  0  0  0  0  0  0  0  0  0
   44.8460  106.4458   56.8495 H   0  0  0  0  0  0  0  0  0  0  0  0
   44.0853  105.1556   56.0342 H   0  0  0  0  0  0  0  0  0  0  0  0
   49.7034  107.8644   56.3556 C   0  0  0  0  0  0  0  0  0  0  0  0
   50.3724  108.5553   56.6300 C   0  0  0  0  0  0  0  0  0  0  0  0
   51.0963  108.8295   55.9970 C   0  0  0  0  0  0  0  0  0  0  0  0
   51.3904  109.7844   55.9571 C   0  0  0  0  0  0  0  0  0  0  0  0
   52.3491  110.0053   55.7782 N   0  0  0  0  0  0  0  0  0  0  0  0
   53.0271  109.2565   55.6365 H   0  0  0  0  0  0  0  0  0  0  0  0
   52.6491  110.9793   55.7375 H   0  0  0  0  0  0  0  0  0  0  0  0
   48.2374  104.6187   58.9916 C   0  0  0  0  0  0  0  0  0  0  0  0
   47.9508  104.2277   58.1168 O   0  0  0  0  0  0  0  0  0  0  0  0
   49.0911  105.1359   59.0524 N   0  0  0  0  0  0  0  0  0  0  0  0
   49.3732  105.5207   59.9135 H   0  0  0  0  0  0  0  0  0  0  0  0
   47.6702  104.4923   59.8054 C   0  0  0  0  0  0  0  0  0  0  0  0
   48.4088  103.7297   61.1740 C   0  0  0  0  0  0  0  0  0  0  0  0
   48.3273  102.8410   60.7228 O   0  0  0  0  0  0  0  0  0  0  0  0
   48.0802  104.5553   60.7153 N   0  0  0  0  0  0  0  0  0  0  0  0
   48.1605  105.4303   61.1595 H   0  0  0  0  0  0  0  0  0  0  0  0
   48.8188  103.7927   62.0838 C   0  0  0  0  0  0  0  0  0  0  0  0
   50.1943  104.8208   62.3099 C   0  0  0  0  0  0  0  0  0  0  0  0
   50.7843  104.1191   61.9107 O   0  0  0  0  0  0  0  0  0  0  0  0
   49.2115  104.6576   62.3965 N   0  0  0  0  0  0  0  0  0  0  0  0
   48.6305  105.3484   62.7896 H   0  0  0  0  0  0  0  0  0  0  0  0
   50.5870  105.6857   62.6226 C   0  0  0  0  0  0  0  0  0  0  0  0
   51.5786  105.7833   62.7062 C   0  0  0  0  0  0  0  0  0  0  0  0
   49.8303  107.1807   62.1842 C   0  0  0  0  0  0  0  0  0  0  0  0
   50.2716  107.1411   61.2877 O   0  0  0  0  0  0  0  0  0  0  0  0
   49.9880  106.4529   62.8516 N   0  0  0  0  0  0  0  0  0  0  0  0
   49.5535  106.4919   63.7342 H   0  0  0  0  0  0  0  0  0  0  0  0
   49.2313  107.9480   62.4132 C   0  0  0  0  0  0  0  0  0  0  0  0
   47.5503  107.5550   62.5534 C   0  0  0  0  0  0  0  0  0  0  0  0
   47.4892  107.4618   61.5596 O   0  0  0  0  0  0  0  0  0  0  0  0
   48.4213  107.7981   62.9802 N   0  0  0  0  0  0  0  0  0  0  0  0
   48.4815  107.8899   63.9585 H   0  0  0  0  0  0  0  0  0  0  0  0
   46.7403  107.4051   63.1204 C   0  0  0  0  0  0  0  0  0  0  0  0
   46.6772  106.0558   64.2045 C   0  0  0  0  0  0  0  0  0  0  0  0
   46.4194  105.4579   63.4454 O   0  0  0  0  0  0  0  0  0  0  0  0
   46.8376  107.0293   64.0419 N   0  0  0  0  0  0  0  0  0  0  0  0
   47.0914  107.6179   64.7892 H   0  0  0  0  0  0  0  0  0  0  0  0
   47.5958  105.1652   65.3720 N   0  0  0  0  0  0  0  0  0  0  0  0
   46.7745  105.6800   65.1261 C   0  0  0  0  0  0  0  0  0  0  0  0
   47.6952  104.7820   66.3120 H   0  0  0  0  0  0  0  0  0  0  0  0
   48.3343  105.0234   64.6827 H   0  0  0  0  0  0  0  0  0  0  0  0
   46.0506  105.8190   65.8018 C   0  0  0  0  0  0  0  0  0  0  0  0
   45.1310  105.4663   65.6291 O   0  0  0  0  0  0  0  0  0  0  0  0
   46.2463  106.3108   66.6502 C   0  0  0  0  0  0  0  0  0  0  0  0
   44.9412  104.9892   64.8061 H   0  0  0  0  0  0  0  0  0  0  0  0
   45.8330  107.6309   62.7658 C   0  0  0  0  0  0  0  0  0  0  0  0
   45.3817  108.4770   63.0494 C   0  0  0  0  0  0  0  0  0  0  0  0
   44.5264  108.7578   62.6139 C   0  0  0  0  0  0  0  0  0  0  0  0
   44.4052  109.7041   62.3141 O   0  0  0  0  0  0  0  0  0  0  0  0
   43.7924  108.0924   62.4781 N   0  0  0  0  0  0  0  0  0  0  0  0
   43.9118  107.1608   62.7733 H   0  0  0  0  0  0  0  0  0  0  0  0
   42.9505  108.3689   62.0493 H   0  0  0  0  0  0  0  0  0  0  0  0
   49.4423  108.8652   62.0752 C   0  0  0  0  0  0  0  0  0  0  0  0
   49.5932  109.6136   62.7211 C   0  0  0  0  0  0  0  0  0  0  0  0
   49.6693  110.5535   62.3883 C   0  0  0  0  0  0  0  0  0  0  0  0
   50.2665  110.7629   61.6140 O   0  0  0  0  0  0  0  0  0  0  0  0
   49.1483  111.2840   62.8298 N   0  0  0  0  0  0  0  0  0  0  0  0
   48.5603  111.0778   63.5921 H   0  0  0  0  0  0  0  0  0  0  0  0
   49.2233  112.2094   62.5021 H   0  0  0  0  0  0  0  0  0  0  0  0
   48.8361  102.9908   62.6811 C   0  0  0  0  0  0  0  0  0  0  0  0
   48.1667  102.9021   63.4186 O   0  0  0  0  0  0  0  0  0  0  0  0
   48.1835  102.1242   63.9979 H   0  0  0  0  0  0  0  0  0  0  0  0
   46.6930  104.3030   59.7094 C   0  0  0  0  0  0  0  0  0  0  0  0
   46.0335  105.0543   59.7322 C   0  0  0  0  0  0  0  0  0  0  0  0
   45.1905  105.0803   60.2695 C   0  0  0  0  0  0  0  0  0  0  0  0
   44.7371  105.9537   60.0911 N   0  0  0  0  0  0  0  0  0  0  0  0
   45.3000  106.4673   59.4434 C   0  0  0  0  0  0  0  0  0  0  0  0
   46.1011  105.9114   59.2217 N   0  0  0  0  0  0  0  0  0  0  0  0
   46.8287  106.1638   58.6083 H   0  0  0  0  0  0  0  0  0  0  0  0
 95 96  1  0  0  0
 95 97  1  0  0  0
 95 98  1  0  0  0
 96 91  1  0  0  0
 96 99  1  0  0  0
 91 92  2  0  0  0
 91 93  1  0  0  0
 93 90  1  0  0  0
 93 94  1  0  0  0
 90103  1  0  0  0
 90 86  1  0  0  0
103104  1  0  0  0
104105  1  0  0  0
105106  2  0  0  0
105107  1  0  0  0
107108  1  0  0  0
107109  1  0  0  0
 86 87  2  0  0  0
 86 88  1  0  0  0
 88 85  1  0  0  0
 88 89  1  0  0  0
 85110  1  0  0  0
 85 81  1  0  0  0
110111  1  0  0  0
111112  1  0  0  0
112113  2  0  0  0
112114  1  0  0  0
114115  1  0  0  0
114116  1  0  0  0
 81 82  2  0  0  0
 81 83  1  0  0  0
 83 79  1  0  0  0
 83 84  1  0  0  0
 79 80  1  0  0  0
 79 75  1  0  0  0
 75 76  2  0  0  0
 75 77  1  0  0  0
 77 74  1  0  0  0
 77 78  1  0  0  0
 74117  1  0  0  0
 74 70  1  0  0  0
117118  1  0  0  0
118119  1  0  0  0
 70 71  2  0  0  0
 70 72  1  0  0  0
 72 69  1  0  0  0
 72 73  1  0  0  0
 69120  1  0  0  0
 69 65  1  0  0  0
120121  1  0  0  0
121125  1  0  0  0
121122  2  0  0  0
122123  1  0  0  0
123124  2  0  0  0
124125  1  0  0  0
125126  1  0  0  0
 65 66  2  0  0  0
 65 67  1  0  0  0
 67  1  1  0  0  0
 67 68  1  0  0  0
  1  2  1  0  0  0
  1 10  1  0  0  0
  2  8  2  0  0  0
  2  3  1  0  0  0
  3  4  2  0  0  0
  4  5  1  0  0  0
  5  6  1  0  0  0
  5  7  2  0  0  0
  6  9  1  0  0  0
  7  8  1  0  0  0
 10 11  2  0  0  0
 10 12  1  0  0  0
 12 14  1  0  0  0
 12 13  1  0  0  0
 14 58  1  0  0  0
 14 15  1  0  0  0
 58 59  1  0  0  0
 59 60  1  0  0  0
 60 61  1  0  0  0
 61 62  1  0  0  0
 62 63  1  0  0  0
 62 64  1  0  0  0
 15 16  2  0  0  0
 15 17  1  0  0  0
 17 19  1  0  0  0
 17 18  1  0  0  0
 19 51  1  0  0  0
 19 20  1  0  0  0
 51 52  1  0  0  0
 52 53  1  0  0  0
 53 54  2  0  0  0
 53 55  1  0  0  0
 55 56  1  0  0  0
 55 57  1  0  0  0
 20 21  2  0  0  0
 20 22  1  0  0  0
 22 24  1  0  0  0
 22 23  1  0  0  0
 24 44  1  0  0  0
 24 25  1  0  0  0
 44 45  1  0  0  0
 45 49  1  0  0  0
 45 46  2  0  0  0
 46 47  1  0  0  0
 47 48  2  0  0  0
 48 49  1  0  0  0
 49 50  1  0  0  0
 25 26  2  0  0  0
 25 27  1  0  0  0
 27 29  1  0  0  0
 27 28  1  0  0  0
 29 41  1  0  0  0
 29 30  1  0  0  0
 41 42  1  0  0  0
 42 43  1  0  0  0
 30 31  2  0  0  0
 30 32  1  0  0  0
 32 36  1  0  0  0
 32 33  1  0  0  0
 33 34  1  0  0  0
 34 35  1  0  0  0
 35 36  1  0  0  0
 36 37  1  0  0  0
 37 38  1  0  0  0
 37 39  2  0  0  0
 38 40  1  0  0  0
 99100  1  0  0  0
 99101  1  0  0  0
100102  1  0  0  0
M  END
> <minimizedAffinity>
-5.11652

$$$$



126129  0  0  0  0  0  0  0  0999 V2000
   46.6682  107.6306   56.4746 C   0  0  0  0  0  0  0  0  0  0  0  0
   46.1539  106.8980   56.0289 C   0  0  0  0  0  0  0  0  0  0  0  0
   46.5275  106.4461   55.2188 C   0  0  0  0  0  0  0  0  0  0  0  0
   46.0131  105.7134   54.7731 C   0  0  0  0  0  0  0  0  0  0  0  0
   45.1252  105.4327   55.1374 C   0  0  0  0  0  0  0  0  0  0  0  0
   44.6109  104.7000   54.6917 O   0  0  0  0  0  0  0  0  0  0  0  0
   44.7516  105.8846   55.9475 C   0  0  0  0  0  0  0  0  0  0  0  0
   45.2659  106.6172   56.3932 C   0  0  0  0  0  0  0  0  0  0  0  0
   44.9610  104.2766   53.9326 H   0  0  0  0  0  0  0  0  0  0  0  0
   46.3725  108.5808   56.3758 C   0  0  0  0  0  0  0  0  0  0  0  0
   45.4205  108.8293   56.5545 O   0  0  0  0  0  0  0  0  0  0  0  0
   47.0288  109.2824   56.0983 N   0  0  0  0  0  0  0  0  0  0  0  0
   47.9660  109.0377   55.9224 H   0  0  0  0  0  0  0  0  0  0  0  0
   46.7331  110.2326   55.9995 C   0  0  0  0  0  0  0  0  0  0  0  0
   46.7732  110.8528   56.7828 C   0  0  0  0  0  0  0  0  0  0  0  0
   47.6553  111.0817   57.1946 O   0  0  0  0  0  0  0  0  0  0  0  0
   45.9314  111.2442   57.1544 N   0  0  0  0  0  0  0  0  0  0  0  0
   45.0630  111.0188   56.7490 H   0  0  0  0  0  0  0  0  0  0  0  0
   45.9715  111.8644   57.9378 C   0  0  0  0  0  0  0  0  0  0  0  0
   45.8820  112.8507   57.7997 C   0  0  0  0  0  0  0  0  0  0  0  0
   45.0622  113.2223   57.3640 O   0  0  0  0  0  0  0  0  0  0  0  0
   46.6125  113.4656   58.0972 N   0  0  0  0  0  0  0  0  0  0  0  0
   47.4196  113.0998   58.5261 H   0  0  0  0  0  0  0  0  0  0  0  0
   46.5230  114.4520   57.9591 C   0  0  0  0  0  0  0  0  0  0  0  0
   46.1227  115.0229   58.6758 C   0  0  0  0  0  0  0  0  0  0  0  0
   45.5065  115.7720   58.4326 O   0  0  0  0  0  0  0  0  0  0  0  0
   46.3386  114.8448   59.6359 N   0  0  0  0  0  0  0  0  0  0  0  0
   46.9452  114.1073   59.8753 H   0  0  0  0  0  0  0  0  0  0  0  0
   45.9383  115.4157   60.3526 C   0  0  0  0  0  0  0  0  0  0  0  0
   45.1787  115.0685   60.9026 C   0  0  0  0  0  0  0  0  0  0  0  0
   44.2658  115.4638   60.8006 O   0  0  0  0  0  0  0  0  0  0  0  0
   45.3320  114.3259   61.5547 N   0  0  0  0  0  0  0  0  0  0  0  0
   46.2033  113.8670   61.7286 C   0  0  0  0  0  0  0  0  0  0  0  0
   46.0507  113.1694   62.4287 C   0  0  0  0  0  0  0  0  0  0  0  0
   45.0851  113.1972   62.6873 C   0  0  0  0  0  0  0  0  0  0  0  0
   44.6410  113.9119   62.1471 C   0  0  0  0  0  0  0  0  0  0  0  0
   43.6753  114.1677   62.1916 C   0  0  0  0  0  0  0  0  0  0  0  0
   43.0050  113.6911   61.6228 O   0  0  0  0  0  0  0  0  0  0  0  0
   43.3798  114.9003   62.8049 O   0  0  0  0  0  0  0  0  0  0  0  0
   43.2819  113.0047   61.0481 H   0  0  0  0  0  0  0  0  0  0  0  0
   46.2975  116.3340   60.5195 C   0  0  0  0  0  0  0  0  0  0  0  0
   47.2198  116.4508   60.8879 S   0  0  0  0  0  0  0  0  0  0  0  0
   47.9856  115.3608   61.1621 H   0  0  0  0  0  0  0  0  0  0  0  0
   46.8338  114.8674   57.1042 C   0  0  0  0  0  0  0  0  0  0  0  0
   47.7435  114.6555   56.7471 C   0  0  0  0  0  0  0  0  0  0  0  0
   48.6134  114.9520   57.1412 C   0  0  0  0  0  0  0  0  0  0  0  0
   49.3506  114.5897   56.5710 N   0  0  0  0  0  0  0  0  0  0  0  0
   48.9363  114.0692   55.8243 C   0  0  0  0  0  0  0  0  0  0  0  0
   47.9430  114.1099   55.9332 N   0  0  0  0  0  0  0  0  0  0  0  0
   47.2784  113.6869   55.3427 H   0  0  0  0  0  0  0  0  0  0  0  0
   46.1012  111.4983   58.8593 C   0  0  0  0  0  0  0  0  0  0  0  0
   45.3326  111.0812   59.3443 C   0  0  0  0  0  0  0  0  0  0  0  0
   45.5002  110.4963   60.1379 C   0  0  0  0  0  0  0  0  0  0  0  0
   44.7619  110.3091   60.7860 O   0  0  0  0  0  0  0  0  0  0  0  0
   46.4060  110.0985   60.2834 N   0  0  0  0  0  0  0  0  0  0  0  0
   47.1328  110.2828   59.6453 H   0  0  0  0  0  0  0  0  0  0  0  0
   46.5711  109.5226   61.0646 H   0  0  0  0  0  0  0  0  0  0  0  0
   46.3972  110.5625   55.1172 C   0  0  0  0  0  0  0  0  0  0  0  0
   47.0378  110.7201   54.3656 C   0  0  0  0  0  0  0  0  0  0  0  0
   46.7992  111.3542   53.6301 C   0  0  0  0  0  0  0  0  0  0  0  0
   47.3902  111.4340   52.8274 C   0  0  0  0  0  0  0  0  0  0  0  0
   47.7727  112.3226   52.5743 N   0  0  0  0  0  0  0  0  0  0  0  0
   47.5600  113.1478   53.1351 H   0  0  0  0  0  0  0  0  0  0  0  0
   48.3755  112.4040   51.7556 H   0  0  0  0  0  0  0  0  0  0  0  0
   47.4133  107.3682   58.0161 C   0  0  0  0  0  0  0  0  0  0  0  0
   46.5382  107.5407   58.4684 O   0  0  0  0  0  0  0  0  0  0  0  0
   47.4782  107.4132   57.0192 N   0  0  0  0  0  0  0  0  0  0  0  0
   48.3397  107.2434   56.5739 H   0  0  0  0  0  0  0  0  0  0  0  0
   48.2233  107.1507   58.5606 C   0  0  0  0  0  0  0  0  0  0  0  0
   49.3860  108.4281   58.6879 C   0  0  0  0  0  0  0  0  0  0  0  0
   48.7746  108.9231   59.3053 O   0  0  0  0  0  0  0  0  0  0  0  0
   49.1103  107.5419   58.3156 N   0  0  0  0  0  0  0  0  0  0  0  0
   49.7123  107.0546   57.7077 H   0  0  0  0  0  0  0  0  0  0  0  0
   50.2730  108.8194   58.4429 C   0  0  0  0  0  0  0  0  0  0  0  0
   50.7165  109.4704   56.9003 C   0  0  0  0  0  0  0  0  0  0  0  0
   51.0640  108.5749   56.6224 O   0  0  0  0  0  0  0  0  0  0  0  0
   50.3210  109.5926   57.8106 N   0  0  0  0  0  0  0  0  0  0  0  0
   49.9788  110.4742   58.0843 H   0  0  0  0  0  0  0  0  0  0  0  0
   50.7644  110.2437   56.2681 C   0  0  0  0  0  0  0  0  0  0  0  0
   50.5588  110.1103   55.2986 C   0  0  0  0  0  0  0  0  0  0  0  0
   51.9488  111.4908   56.4721 C   0  0  0  0  0  0  0  0  0  0  0  0
   52.6259  110.9248   56.0019 O   0  0  0  0  0  0  0  0  0  0  0  0
   51.0181  111.1503   56.6052 N   0  0  0  0  0  0  0  0  0  0  0  0
   50.3515  111.7075   57.0682 H   0  0  0  0  0  0  0  0  0  0  0  0
   52.2025  112.3975   56.8093 C   0  0  0  0  0  0  0  0  0  0  0  0
   51.9607  112.6671   58.5031 C   0  0  0  0  0  0  0  0  0  0  0  0
   52.7566  112.0972   58.7074 O   0  0  0  0  0  0  0  0  0  0  0  0
   51.6836  112.8172   57.5541 N   0  0  0  0  0  0  0  0  0  0  0  0
   50.9000  113.3782   57.3529 H   0  0  0  0  0  0  0  0  0  0  0  0
   51.4418  113.0867   59.2478 C   0  0  0  0  0  0  0  0  0  0  0  0
   51.7810  114.7263   59.6912 C   0  0  0  0  0  0  0  0  0  0  0  0
   52.5805  114.4211   60.2086 O   0  0  0  0  0  0  0  0  0  0  0  0
   51.2117  114.0592   59.2109 N   0  0  0  0  0  0  0  0  0  0  0  0
   50.4245  114.3597   58.7015 H   0  0  0  0  0  0  0  0  0  0  0  0
   50.9243  116.0903   60.3282 N   0  0  0  0  0  0  0  0  0  0  0  0
   51.5508  115.6988   59.6542 C   0  0  0  0  0  0  0  0  0  0  0  0
   50.6895  117.0822   60.2906 H   0  0  0  0  0  0  0  0  0  0  0  0
   50.5201  115.4977   61.0534 H   0  0  0  0  0  0  0  0  0  0  0  0
   51.9471  116.2798   58.9433 C   0  0  0  0  0  0  0  0  0  0  0  0
   52.9240  116.2223   58.7376 O   0  0  0  0  0  0  0  0  0  0  0  0
   51.3665  116.9182   58.4381 C   0  0  0  0  0  0  0  0  0  0  0  0
   53.4872  115.6029   59.2277 H   0  0  0  0  0  0  0  0  0  0  0  0
   51.1530  112.5340   60.0295 C   0  0  0  0  0  0  0  0  0  0  0  0
   50.2016  112.2360   60.1070 C   0  0  0  0  0  0  0  0  0  0  0  0
   49.8313  111.9718   60.9976 C   0  0  0  0  0  0  0  0  0  0  0  0
   49.5684  112.6748   61.6583 O   0  0  0  0  0  0  0  0  0  0  0  0
   49.7239  111.0045   61.2273 N   0  0  0  0  0  0  0  0  0  0  0  0
   49.9827  110.3124   60.5768 H   0  0  0  0  0  0  0  0  0  0  0  0
   49.3593  110.7443   62.1040 H   0  0  0  0  0  0  0  0  0  0  0  0
   52.9750  112.8844   56.4018 C   0  0  0  0  0  0  0  0  0  0  0  0
   52.8200  113.7311   55.8927 C   0  0  0  0  0  0  0  0  0  0  0  0
   53.5905  114.3277   55.6682 C   0  0  0  0  0  0  0  0  0  0  0  0
   53.9369  114.9741   56.3480 O   0  0  0  0  0  0  0  0  0  0  0  0
   54.0145  114.2779   54.7639 N   0  0  0  0  0  0  0  0  0  0  0  0
   53.6734  113.6416   54.0946 H   0  0  0  0  0  0  0  0  0  0  0  0
   54.7731  114.8653   54.5429 H   0  0  0  0  0  0  0  0  0  0  0  0
   51.1121  108.4374   58.8302 C   0  0  0  0  0  0  0  0  0  0  0  0
   51.4465  108.7605   59.7155 O   0  0  0  0  0  0  0  0  0  0  0  0
   52.2604  108.3899   60.0911 H   0  0  0  0  0  0  0  0  0  0  0  0
   48.1462  106.5419   59.3503 C   0  0  0  0  0  0  0  0  0  0  0  0
   48.3567  105.5691   59.2540 C   0  0  0  0  0  0  0  0  0  0  0  0
   49.2576  105.1490   59.3633 C   0  0  0  0  0  0  0  0  0  0  0  0
   49.1610  104.1657   59.2084 N   0  0  0  0  0  0  0  0  0  0  0  0
   48.2003  103.9782   59.0035 C   0  0  0  0  0  0  0  0  0  0  0  0
   47.7033  104.8455   59.0317 N   0  0  0  0  0  0  0  0  0  0  0  0
   46.7398  104.9659   58.8691 H   0  0  0  0  0  0  0  0  0  0  0  0
 95 96  1  0  0  0
 95 97  1  0  0  0
 95 98  1  0  0  0
 96 91  1  0  0  0
 96 99  1  0  0  0
 91 92  2  0  0  0
 91 93  1  0  0  0
 93 90  1  0  0  0
 93 94  1  0  0  0
 90103  1  0  0  0
 90 86  1  0  0  0
103104  1  0  0  0
104105  1  0  0  0
105106  2  0  0  0
105107  1  0  0  0
107108  1  0  0  0
107109  1  0  0  0
 86 87  2  0  0  0
 86 88  1  0  0  0
 88 85  1  0  0  0
 88 89  1  0  0  0
 85110  1  0  0  0
 85 81  1  0  0  0
110111  1  0  0  0
111112  1  0  0  0
112113  2  0  0  0
112114  1  0  0  0
114115  1  0  0  0
114116  1  0  0  0
 81 82  2  0  0  0
 81 83  1  0  0  0
 83 79  1  0  0  0
 83 84  1  0  0  0
 79 80  1  0  0  0
 79 75  1  0  0  0
 75 76  2  0  0  0
 75 77  1  0  0  0
 77 74  1  0  0  0
 77 78  1  0  0  0
 74117  1  0  0  0
 74 70  1  0  0  0
117118  1  0  0  0
118119  1  0  0  0
 70 71  2  0  0  0
 70 72  1  0  0  0
 72 69  1  0  0  0
 72 73  1  0  0  0
 69120  1  0  0  0
 69 65  1  0  0  0
120121  1  0  0  0
121125  1  0  0  0
121122  2  0  0  0
122123  1  0  0  0
123124  2  0  0  0
124125  1  0  0  0
125126  1  0  0  0
 65 66  2  0  0  0
 65 67  1  0  0  0
 67  1  1  0  0  0
 67 68  1  0  0  0
  1  2  1  0  0  0
  1 10  1  0  0  0
  2  8  2  0  0  0
  2  3  1  0  0  0
  3  4  2  0  0  0
  4  5  1  0  0  0
  5  6  1  0  0  0
  5  7  2  0  0  0
  6  9  1  0  0  0
  7  8  1  0  0  0
 10 11  2  0  0  0
 10 12  1  0  0  0
 12 14  1  0  0  0
 12 13  1  0  0  0
 14 58  1  0  0  0
 14 15  1  0  0  0
 58 59  1  0  0  0
 59 60  1  0  0  0
 60 61  1  0  0  0
 61 62  1  0  0  0
 62 63  1  0  0  0
 62 64  1  0  0  0
 15 16  2  0  0  0
 15 17  1  0  0  0
 17 19  1  0  0  0
 17 18  1  0  0  0
 19 51  1  0  0  0
 19 20  1  0  0  0
 51 52  1  0  0  0
 52 53  1  0  0  0
 53 54  2  0  0  0
 53 55  1  0  0  0
 55 56  1  0  0  0
 55 57  1  0  0  0
 20 21  2  0  0  0
 20 22  1  0  0  0
 22 24  1  0  0  0
 22 23  1  0  0  0
 24 44  1  0  0  0
 24 25  1  0  0  0
 44 45  1  0  0  0
 45 49  1  0  0  0
 45 46  2  0  0  0
 46 47  1  0  0  0
 47 48  2  0  0  0
 48 49  1  0  0  0
 49 50  1  0  0  0
 25 26  2  0  0  0
 25 27  1  0  0  0
 27 29  1  0  0  0
 27 28  1  0  0  0
 29 41  1  0  0  0
 29 30  1  0  0  0
 41 42  1  0  0  0
 42 43  1  0  0  0
 30 31  2  0  0  0
 30 32  1  0  0  0
 32 36  1  0  0  0
 32 33  1  0  0  0
 33 34  1  0  0  0
 34 35  1  0  0  0
 35 36  1  0  0  0
 36 37  1  0  0  0
 37 38  1  0  0  0
 37 39  2  0  0  0
 38 40  1  0  0  0
 99100  1  0  0  0
 99101  1  0  0  0
100102  1  0  0  0
M  END
> <minimizedAffinity>
-5.01999

$$$$



126129  0  0  0  0  0  0  0  0999 V2000
   46.3940  106.5741   58.1612 C   0  0  0  0  0  0  0  0  0  0  0  0
   46.1531  106.2978   57.2308 C   0  0  0  0  0  0  0  0  0  0  0  0
   45.1921  106.2171   56.9663 C   0  0  0  0  0  0  0  0  0  0  0  0
   44.9511  105.9407   56.0358 C   0  0  0  0  0  0  0  0  0  0  0  0
   45.6711  105.7450   55.3701 C   0  0  0  0  0  0  0  0  0  0  0  0
   45.4302  105.4687   54.4397 O   0  0  0  0  0  0  0  0  0  0  0  0
   46.6321  105.8257   55.6347 C   0  0  0  0  0  0  0  0  0  0  0  0
   46.8731  106.1020   56.5650 C   0  0  0  0  0  0  0  0  0  0  0  0
   44.5297  105.3931   54.1918 H   0  0  0  0  0  0  0  0  0  0  0  0
   46.3382  105.9130   58.9094 C   0  0  0  0  0  0  0  0  0  0  0  0
   45.4698  105.4613   59.1138 O   0  0  0  0  0  0  0  0  0  0  0  0
   47.1509  105.7037   59.4532 N   0  0  0  0  0  0  0  0  0  0  0  0
   48.0059  106.1484   59.2519 H   0  0  0  0  0  0  0  0  0  0  0  0
   47.0952  105.0425   60.2015 C   0  0  0  0  0  0  0  0  0  0  0  0
   47.6334  104.2006   60.1659 C   0  0  0  0  0  0  0  0  0  0  0  0
   48.4766  104.1233   60.6980 O   0  0  0  0  0  0  0  0  0  0  0  0
   47.3286  103.4358   59.5982 N   0  0  0  0  0  0  0  0  0  0  0  0
   46.4986  103.5119   59.0744 H   0  0  0  0  0  0  0  0  0  0  0  0
   47.8669  102.5938   59.5626 C   0  0  0  0  0  0  0  0  0  0  0  0
   47.6728  101.8490   60.2010 C   0  0  0  0  0  0  0  0  0  0  0  0
   46.7271  101.6297   60.4408 O   0  0  0  0  0  0  0  0  0  0  0  0
   48.4245  101.3234   60.5996 N   0  0  0  0  0  0  0  0  0  0  0  0
   49.3555  101.5393   60.3635 H   0  0  0  0  0  0  0  0  0  0  0  0
   48.2304  100.5786   61.2380 C   0  0  0  0  0  0  0  0  0  0  0  0
   48.1209   99.6445   60.8980 C   0  0  0  0  0  0  0  0  0  0  0  0
   48.8294   99.2354   60.3232 O   0  0  0  0  0  0  0  0  0  0  0  0
   47.3028   99.1197   61.1330 N   0  0  0  0  0  0  0  0  0  0  0  0
   46.6052   99.5225   61.6989 H   0  0  0  0  0  0  0  0  0  0  0  0
   47.1932   98.1856   60.7930 C   0  0  0  0  0  0  0  0  0  0  0  0
   46.2839   97.8427   60.5573 C   0  0  0  0  0  0  0  0  0  0  0  0
   45.7867   97.2607   61.2007 O   0  0  0  0  0  0  0  0  0  0  0  0
   45.8718   98.0819   59.6780 N   0  0  0  0  0  0  0  0  0  0  0  0
   46.2866   98.6545   58.9709 C   0  0  0  0  0  0  0  0  0  0  0  0
   45.6437   98.7169   58.2074 C   0  0  0  0  0  0  0  0  0  0  0  0
   44.8317   98.1829   58.4428 C   0  0  0  0  0  0  0  0  0  0  0  0
   44.9727   97.7904   59.3517 C   0  0  0  0  0  0  0  0  0  0  0  0
   44.3277   97.2087   59.8472 C   0  0  0  0  0  0  0  0  0  0  0  0
   43.6266   97.6217   60.4285 O   0  0  0  0  0  0  0  0  0  0  0  0
   44.3838   96.2139   59.7615 O   0  0  0  0  0  0  0  0  0  0  0  0
   43.5740   98.5537   60.5089 H   0  0  0  0  0  0  0  0  0  0  0  0
   47.9931   97.5944   60.6889 C   0  0  0  0  0  0  0  0  0  0  0  0
   48.1272   96.8209   61.3083 S   0  0  0  0  0  0  0  0  0  0  0  0
   47.2220   96.5730   62.2925 H   0  0  0  0  0  0  0  0  0  0  0  0
   48.1458  100.7678   62.2163 C   0  0  0  0  0  0  0  0  0  0  0  0
   48.9555  101.0108   62.7504 C   0  0  0  0  0  0  0  0  0  0  0  0
   49.1047  101.8745   63.2319 C   0  0  0  0  0  0  0  0  0  0  0  0
   49.9996  101.8303   63.6758 N   0  0  0  0  0  0  0  0  0  0  0  0
   50.4036  100.9392   63.4688 C   0  0  0  0  0  0  0  0  0  0  0  0
   49.7583  100.4327   62.8968 N   0  0  0  0  0  0  0  0  0  0  0  0
   49.8902   99.5245   62.5405 H   0  0  0  0  0  0  0  0  0  0  0  0
   48.5993  102.4967   58.8887 C   0  0  0  0  0  0  0  0  0  0  0  0
   48.3822  102.4844   57.9127 C   0  0  0  0  0  0  0  0  0  0  0  0
   49.0425  102.1161   57.2582 C   0  0  0  0  0  0  0  0  0  0  0  0
   49.9621  102.5051   57.2031 O   0  0  0  0  0  0  0  0  0  0  0  0
   48.7832  101.3588   56.6588 N   0  0  0  0  0  0  0  0  0  0  0  0
   47.8778  100.9758   56.7131 H   0  0  0  0  0  0  0  0  0  0  0  0
   49.4332  100.9961   56.0145 H   0  0  0  0  0  0  0  0  0  0  0  0
   46.5011  105.2235   60.9853 C   0  0  0  0  0  0  0  0  0  0  0  0
   46.8954  105.5332   61.8506 C   0  0  0  0  0  0  0  0  0  0  0  0
   46.3067  105.9306   62.5545 C   0  0  0  0  0  0  0  0  0  0  0  0
   46.6232  105.9796   63.5018 C   0  0  0  0  0  0  0  0  0  0  0  0
   47.3875  106.5775   63.7434 N   0  0  0  0  0  0  0  0  0  0  0  0
   47.8443  107.1374   63.0234 H   0  0  0  0  0  0  0  0  0  0  0  0
   47.7102  106.6274   64.7096 H   0  0  0  0  0  0  0  0  0  0  0  0
   46.0567  108.1655   58.7559 C   0  0  0  0  0  0  0  0  0  0  0  0
   45.1257  107.8820   58.9864 O   0  0  0  0  0  0  0  0  0  0  0  0
   46.6908  107.5115   58.3433 N   0  0  0  0  0  0  0  0  0  0  0  0
   47.6072  107.7906   58.1164 H   0  0  0  0  0  0  0  0  0  0  0  0
   46.3534  109.1029   58.9380 C   0  0  0  0  0  0  0  0  0  0  0  0
   46.9758  109.9576   57.5661 C   0  0  0  0  0  0  0  0  0  0  0  0
   46.0499  110.0407   57.1977 O   0  0  0  0  0  0  0  0  0  0  0  0
   47.1276  109.4887   58.4362 N   0  0  0  0  0  0  0  0  0  0  0  0
   48.0392  109.4069   58.7990 H   0  0  0  0  0  0  0  0  0  0  0  0
   47.7500  110.3434   57.0644 C   0  0  0  0  0  0  0  0  0  0  0  0
   49.3045  109.6533   56.7367 C   0  0  0  0  0  0  0  0  0  0  0  0
   49.6898  110.1528   57.5126 O   0  0  0  0  0  0  0  0  0  0  0  0
   48.3346  109.7486   56.5126 N   0  0  0  0  0  0  0  0  0  0  0  0
   47.9553  109.2568   55.7487 H   0  0  0  0  0  0  0  0  0  0  0  0
   49.8891  109.0585   56.1849 C   0  0  0  0  0  0  0  0  0  0  0  0
   50.2513  109.3841   55.3115 C   0  0  0  0  0  0  0  0  0  0  0  0
   51.0665  107.8495   56.5745 C   0  0  0  0  0  0  0  0  0  0  0  0
   51.7991  108.4812   56.3209 O   0  0  0  0  0  0  0  0  0  0  0  0
   50.1115  108.1382   56.5065 N   0  0  0  0  0  0  0  0  0  0  0  0
   49.3903  107.5163   56.7561 H   0  0  0  0  0  0  0  0  0  0  0  0
   51.2890  106.9290   56.8961 C   0  0  0  0  0  0  0  0  0  0  0  0
   50.7005  106.2097   58.3577 C   0  0  0  0  0  0  0  0  0  0  0  0
   49.9132  105.8446   57.8610 O   0  0  0  0  0  0  0  0  0  0  0  0
   51.3884  106.7520   57.8752 N   0  0  0  0  0  0  0  0  0  0  0  0
   52.1636  107.1115   58.3642 H   0  0  0  0  0  0  0  0  0  0  0  0
   50.8000  106.0327   59.3369 C   0  0  0  0  0  0  0  0  0  0  0  0
   51.7955  104.7431   59.9251 C   0  0  0  0  0  0  0  0  0  0  0  0
   52.6010  105.3310   59.8509 O   0  0  0  0  0  0  0  0  0  0  0  0
   50.8950  105.0939   59.6681 N   0  0  0  0  0  0  0  0  0  0  0  0
   50.1019  104.5151   59.7412 H   0  0  0  0  0  0  0  0  0  0  0  0
   51.4266  103.5210   61.0957 N   0  0  0  0  0  0  0  0  0  0  0  0
   51.8904  103.8043   60.2564 C   0  0  0  0  0  0  0  0  0  0  0  0
   51.5234  102.5635   61.4336 H   0  0  0  0  0  0  0  0  0  0  0  0
   50.8566  104.1896   61.6140 H   0  0  0  0  0  0  0  0  0  0  0  0
   52.4492  103.1489   59.7483 C   0  0  0  0  0  0  0  0  0  0  0  0
   52.1985  102.8969   58.8136 O   0  0  0  0  0  0  0  0  0  0  0  0
   53.2587  102.7455   60.1748 C   0  0  0  0  0  0  0  0  0  0  0  0
   51.4132  103.2882   58.3998 H   0  0  0  0  0  0  0  0  0  0  0  0
   50.8045  106.7943   59.9848 C   0  0  0  0  0  0  0  0  0  0  0  0
   49.9407  107.1790   60.3102 C   0  0  0  0  0  0  0  0  0  0  0  0
   49.9399  107.8500   61.0517 C   0  0  0  0  0  0  0  0  0  0  0  0
   49.7117  107.5658   61.9829 O   0  0  0  0  0  0  0  0  0  0  0  0
   50.1674  108.8051   60.8620 N   0  0  0  0  0  0  0  0  0  0  0  0
   50.3921  109.0848   59.9452 H   0  0  0  0  0  0  0  0  0  0  0  0
   50.1667  109.4656   61.5920 H   0  0  0  0  0  0  0  0  0  0  0  0
   51.4120  106.1858   56.2385 C   0  0  0  0  0  0  0  0  0  0  0  0
   52.3329  105.8890   55.9859 C   0  0  0  0  0  0  0  0  0  0  0  0
   52.4770  104.9756   55.6052 C   0  0  0  0  0  0  0  0  0  0  0  0
   52.4748  104.1770   56.2071 O   0  0  0  0  0  0  0  0  0  0  0  0
   52.6235  104.8607   54.6227 N   0  0  0  0  0  0  0  0  0  0  0  0
   52.6257  105.6469   54.0301 H   0  0  0  0  0  0  0  0  0  0  0  0
   52.7654  103.9614   54.2479 H   0  0  0  0  0  0  0  0  0  0  0  0
   47.9396  111.3239   57.1144 C   0  0  0  0  0  0  0  0  0  0  0  0
   47.4437  111.9599   56.5231 O   0  0  0  0  0  0  0  0  0  0  0  0
   47.6276  112.9111   56.5717 H   0  0  0  0  0  0  0  0  0  0  0  0
   45.8759  109.6546   59.6219 C   0  0  0  0  0  0  0  0  0  0  0  0
   46.3040  109.8334   60.5078 C   0  0  0  0  0  0  0  0  0  0  0  0
   46.7413  110.6881   60.7874 C   0  0  0  0  0  0  0  0  0  0  0  0
   47.0777  110.5719   61.7220 N   0  0  0  0  0  0  0  0  0  0  0  0
   46.8482  109.6453   62.0199 C   0  0  0  0  0  0  0  0  0  0  0  0
   46.3701  109.1889   61.2694 N   0  0  0  0  0  0  0  0  0  0  0  0
   46.0250  108.2669   61.2789 H   0  0  0  0  0  0  0  0  0  0  0  0
 95 96  1  0  0  0
 95 97  1  0  0  0
 95 98  1  0  0  0
 96 91  1  0  0  0
 96 99  1  0  0  0
 91 92  2  0  0  0
 91 93  1  0  0  0
 93 90  1  0  0  0
 93 94  1  0  0  0
 90103  1  0  0  0
 90 86  1  0  0  0
103104  1  0  0  0
104105  1  0  0  0
105106  2  0  0  0
105107  1  0  0  0
107108  1  0  0  0
107109  1  0  0  0
 86 87  2  0  0  0
 86 88  1  0  0  0
 88 85  1  0  0  0
 88 89  1  0  0  0
 85110  1  0  0  0
 85 81  1  0  0  0
110111  1  0  0  0
111112  1  0  0  0
112113  2  0  0  0
112114  1  0  0  0
114115  1  0  0  0
114116  1  0  0  0
 81 82  2  0  0  0
 81 83  1  0  0  0
 83 79  1  0  0  0
 83 84  1  0  0  0
 79 80  1  0  0  0
 79 75  1  0  0  0
 75 76  2  0  0  0
 75 77  1  0  0  0
 77 74  1  0  0  0
 77 78  1  0  0  0
 74117  1  0  0  0
 74 70  1  0  0  0
117118  1  0  0  0
118119  1  0  0  0
 70 71  2  0  0  0
 70 72  1  0  0  0
 72 69  1  0  0  0
 72 73  1  0  0  0
 69120  1  0  0  0
 69 65  1  0  0  0
120121  1  0  0  0
121125  1  0  0  0
121122  2  0  0  0
122123  1  0  0  0
123124  2  0  0  0
124125  1  0  0  0
125126  1  0  0  0
 65 66  2  0  0  0
 65 67  1  0  0  0
 67  1  1  0  0  0
 67 68  1  0  0  0
  1  2  1  0  0  0
  1 10  1  0  0  0
  2  8  2  0  0  0
  2  3  1  0  0  0
  3  4  2  0  0  0
  4  5  1  0  0  0
  5  6  1  0  0  0
  5  7  2  0  0  0
  6  9  1  0  0  0
  7  8  1  0  0  0
 10 11  2  0  0  0
 10 12  1  0  0  0
 12 14  1  0  0  0
 12 13  1  0  0  0
 14 58  1  0  0  0
 14 15  1  0  0  0
 58 59  1  0  0  0
 59 60  1  0  0  0
 60 61  1  0  0  0
 61 62  1  0  0  0
 62 63  1  0  0  0
 62 64  1  0  0  0
 15 16  2  0  0  0
 15 17  1  0  0  0
 17 19  1  0  0  0
 17 18  1  0  0  0
 19 51  1  0  0  0
 19 20  1  0  0  0
 51 52  1  0  0  0
 52 53  1  0  0  0
 53 54  2  0  0  0
 53 55  1  0  0  0
 55 56  1  0  0  0
 55 57  1  0  0  0
 20 21  2  0  0  0
 20 22  1  0  0  0
 22 24  1  0  0  0
 22 23  1  0  0  0
 24 44  1  0  0  0
 24 25  1  0  0  0
 44 45  1  0  0  0
 45 49  1  0  0  0
 45 46  2  0  0  0
 46 47  1  0  0  0
 47 48  2  0  0  0
 48 49  1  0  0  0
 49 50  1  0  0  0
 25 26  2  0  0  0
 25 27  1  0  0  0
 27 29  1  0  0  0
 27 28  1  0  0  0
 29 41  1  0  0  0
 29 30  1  0  0  0
 41 42  1  0  0  0
 42 43  1  0  0  0
 30 31  2  0  0  0
 30 32  1  0  0  0
 32 36  1  0  0  0
 32 33  1  0  0  0
 33 34  1  0  0  0
 34 35  1  0  0  0
 35 36  1  0  0  0
 36 37  1  0  0  0
 37 38  1  0  0  0
 37 39  2  0  0  0
 38 40  1  0  0  0
 99100  1  0  0  0
 99101  1  0  0  0
100102  1  0  0  0
M  END
> <minimizedAffinity>
-4.97833

$$$$



126129  0  0  0  0  0  0  0  0999 V2000
   46.6770  108.3118   58.1098 C   0  0  0  0  0  0  0  0  0  0  0  0
   46.3695  107.8358   57.2859 C   0  0  0  0  0  0  0  0  0  0  0  0
   45.7493  107.0550   57.3615 C   0  0  0  0  0  0  0  0  0  0  0  0
   45.4418  106.5790   56.5375 C   0  0  0  0  0  0  0  0  0  0  0  0
   45.7545  106.8839   55.6379 C   0  0  0  0  0  0  0  0  0  0  0  0
   45.4470  106.4079   54.8140 O   0  0  0  0  0  0  0  0  0  0  0  0
   46.3747  107.6647   55.5623 C   0  0  0  0  0  0  0  0  0  0  0  0
   46.6822  108.1407   56.3862 C   0  0  0  0  0  0  0  0  0  0  0  0
   44.8659  105.6763   54.8849 H   0  0  0  0  0  0  0  0  0  0  0  0
   46.0373  108.8806   58.6268 C   0  0  0  0  0  0  0  0  0  0  0  0
   45.1262  108.5333   58.8486 O   0  0  0  0  0  0  0  0  0  0  0  0
   46.3088  109.7966   58.9219 N   0  0  0  0  0  0  0  0  0  0  0  0
   47.2058  110.1385   58.7035 H   0  0  0  0  0  0  0  0  0  0  0  0
   45.6691  110.3655   59.4389 C   0  0  0  0  0  0  0  0  0  0  0  0
   45.6227  110.2873   60.4347 C   0  0  0  0  0  0  0  0  0  0  0  0
   44.8060  110.5950   60.9229 O   0  0  0  0  0  0  0  0  0  0  0  0
   46.3929  109.9013   60.9424 N   0  0  0  0  0  0  0  0  0  0  0  0
   47.1969  109.5984   60.4618 H   0  0  0  0  0  0  0  0  0  0  0  0
   46.3465  109.8231   61.9382 C   0  0  0  0  0  0  0  0  0  0  0  0
   46.7557  110.5301   62.5149 C   0  0  0  0  0  0  0  0  0  0  0  0
   47.6651  110.8862   62.3000 O   0  0  0  0  0  0  0  0  0  0  0  0
   46.2555  110.8812   63.3066 N   0  0  0  0  0  0  0  0  0  0  0  0
   45.3602  110.5306   63.5181 H   0  0  0  0  0  0  0  0  0  0  0  0
   46.6648  111.5882   63.8833 C   0  0  0  0  0  0  0  0  0  0  0  0
   46.3435  112.5330   63.8198 C   0  0  0  0  0  0  0  0  0  0  0  0
   45.5264  112.8180   64.3209 O   0  0  0  0  0  0  0  0  0  0  0  0
   46.8393  113.1929   63.2552 N   0  0  0  0  0  0  0  0  0  0  0  0
   47.6437  112.9123   62.7619 H   0  0  0  0  0  0  0  0  0  0  0  0
   46.5180  114.1377   63.1918 C   0  0  0  0  0  0  0  0  0  0  0  0
   46.4221  114.5742   62.2972 C   0  0  0  0  0  0  0  0  0  0  0  0
   47.2114  115.0132   61.8678 O   0  0  0  0  0  0  0  0  0  0  0  0
   45.5369  114.5718   61.8319 N   0  0  0  0  0  0  0  0  0  0  0  0
   44.6927  114.1614   62.1769 C   0  0  0  0  0  0  0  0  0  0  0  0
   43.9746  114.3153   61.4982 C   0  0  0  0  0  0  0  0  0  0  0  0
   44.3750  114.8207   60.7338 C   0  0  0  0  0  0  0  0  0  0  0  0
   45.3405  114.9792   60.9401 C   0  0  0  0  0  0  0  0  0  0  0  0
   45.9948  115.4607   60.3570 C   0  0  0  0  0  0  0  0  0  0  0  0
   45.9963  116.4603   60.3265 O   0  0  0  0  0  0  0  0  0  0  0  0
   46.6475  114.9426   59.8041 O   0  0  0  0  0  0  0  0  0  0  0  0
   45.3847  116.9457   60.8445 H   0  0  0  0  0  0  0  0  0  0  0  0
   46.2926  114.6461   64.0229 C   0  0  0  0  0  0  0  0  0  0  0  0
   46.9638  115.2681   64.4262 S   0  0  0  0  0  0  0  0  0  0  0  0
   48.1833  115.4225   63.8443 H   0  0  0  0  0  0  0  0  0  0  0  0
   47.3953  111.3504   64.5234 C   0  0  0  0  0  0  0  0  0  0  0  0
   47.1694  110.9898   65.4283 C   0  0  0  0  0  0  0  0  0  0  0  0
   46.9995  110.0303   65.6531 C   0  0  0  0  0  0  0  0  0  0  0  0
   46.7988  109.9728   66.6310 N   0  0  0  0  0  0  0  0  0  0  0  0
   46.8447  110.8968   67.0108 C   0  0  0  0  0  0  0  0  0  0  0  0
   47.0737  111.5253   66.2674 N   0  0  0  0  0  0  0  0  0  0  0  0
   47.1853  112.5002   66.3476 H   0  0  0  0  0  0  0  0  0  0  0  0
   45.8908  109.0378   62.3574 C   0  0  0  0  0  0  0  0  0  0  0  0
   46.3557  108.1534   62.3986 C   0  0  0  0  0  0  0  0  0  0  0  0
   45.8241  107.3139   62.5114 C   0  0  0  0  0  0  0  0  0  0  0  0
   44.8505  107.3647   62.7341 O   0  0  0  0  0  0  0  0  0  0  0  0
   46.2661  106.4237   62.4016 N   0  0  0  0  0  0  0  0  0  0  0  0
   47.2246  106.3737   62.1824 H   0  0  0  0  0  0  0  0  0  0  0  0
   45.7427  105.5972   62.5127 H   0  0  0  0  0  0  0  0  0  0  0  0
   45.0759  111.0126   58.9600 C   0  0  0  0  0  0  0  0  0  0  0  0
   45.4765  111.7530   58.4201 C   0  0  0  0  0  0  0  0  0  0  0  0
   44.9037  112.2812   57.7933 C   0  0  0  0  0  0  0  0  0  0  0  0
   45.1918  113.1930   57.5006 C   0  0  0  0  0  0  0  0  0  0  0  0
   44.7812  113.6110   56.6903 N   0  0  0  0  0  0  0  0  0  0  0  0
   44.0684  113.1074   56.1623 H   0  0  0  0  0  0  0  0  0  0  0  0
   45.0751  114.5410   56.3918 H   0  0  0  0  0  0  0  0  0  0  0  0
   47.8717  107.4979   59.0639 C   0  0  0  0  0  0  0  0  0  0  0  0
   47.1720  106.8696   59.4041 O   0  0  0  0  0  0  0  0  0  0  0  0
   47.6242  108.2190   58.4168 N   0  0  0  0  0  0  0  0  0  0  0  0
   48.3130  108.8375   58.0819 H   0  0  0  0  0  0  0  0  0  0  0  0
   48.8189  107.4051   59.3708 C   0  0  0  0  0  0  0  0  0  0  0  0
   49.9212  107.1422   58.0610 C   0  0  0  0  0  0  0  0  0  0  0  0
   49.5283  106.2348   57.9124 O   0  0  0  0  0  0  0  0  0  0  0  0
   49.5665  107.7274   58.7902 N   0  0  0  0  0  0  0  0  0  0  0  0
   49.9533  108.6208   58.9366 H   0  0  0  0  0  0  0  0  0  0  0  0
   50.6689  107.4645   57.4804 C   0  0  0  0  0  0  0  0  0  0  0  0
   50.4837  108.7118   56.2930 C   0  0  0  0  0  0  0  0  0  0  0  0
   50.1936  108.0298   55.6218 O   0  0  0  0  0  0  0  0  0  0  0  0
   50.7213  108.4292   57.2223 N   0  0  0  0  0  0  0  0  0  0  0  0
   51.0070  109.1007   57.8832 H   0  0  0  0  0  0  0  0  0  0  0  0
   50.5362  109.6765   56.0349 C   0  0  0  0  0  0  0  0  0  0  0  0
   51.3952  110.0563   55.6916 C   0  0  0  0  0  0  0  0  0  0  0  0
   49.4809  110.8816   55.3762 C   0  0  0  0  0  0  0  0  0  0  0  0
   50.0386  110.9168   54.5470 O   0  0  0  0  0  0  0  0  0  0  0  0
   49.7296  110.2615   56.1202 N   0  0  0  0  0  0  0  0  0  0  0  0
   49.1805  110.2269   56.9366 H   0  0  0  0  0  0  0  0  0  0  0  0
   48.6743  111.4667   55.4615 C   0  0  0  0  0  0  0  0  0  0  0  0
   48.9400  112.9522   56.3114 C   0  0  0  0  0  0  0  0  0  0  0  0
   49.4532  113.3074   55.5301 O   0  0  0  0  0  0  0  0  0  0  0  0
   48.5505  112.0319   56.2771 N   0  0  0  0  0  0  0  0  0  0  0  0
   48.0452  111.6822   57.0462 H   0  0  0  0  0  0  0  0  0  0  0  0
   48.8162  113.5175   57.1270 C   0  0  0  0  0  0  0  0  0  0  0  0
   49.3501  112.8652   58.6401 C   0  0  0  0  0  0  0  0  0  0  0  0
   50.2974  113.0716   58.3949 O   0  0  0  0  0  0  0  0  0  0  0  0
   48.6096  113.0881   58.0062 N   0  0  0  0  0  0  0  0  0  0  0  0
   47.6770  112.8850   58.2476 H   0  0  0  0  0  0  0  0  0  0  0  0
   48.5338  112.8922   60.1675 N   0  0  0  0  0  0  0  0  0  0  0  0
   49.1434  112.4359   59.5194 C   0  0  0  0  0  0  0  0  0  0  0  0
   48.3229  112.4543   61.0643 H   0  0  0  0  0  0  0  0  0  0  0  0
   48.1227  113.7955   59.9318 H   0  0  0  0  0  0  0  0  0  0  0  0
   49.5464  111.5503   59.7504 C   0  0  0  0  0  0  0  0  0  0  0  0
   49.1894  110.7145   59.3333 O   0  0  0  0  0  0  0  0  0  0  0  0
   50.3063  111.5006   60.3985 C   0  0  0  0  0  0  0  0  0  0  0  0
   48.4522  110.7627   58.7047 H   0  0  0  0  0  0  0  0  0  0  0  0
   48.8991  114.5120   57.0635 C   0  0  0  0  0  0  0  0  0  0  0  0
   48.0873  115.0717   56.8974 C   0  0  0  0  0  0  0  0  0  0  0  0
   48.1635  116.0686   56.8742 C   0  0  0  0  0  0  0  0  0  0  0  0
   47.5673  116.6292   57.4488 O   0  0  0  0  0  0  0  0  0  0  0  0
   48.8360  116.5048   56.2763 N   0  0  0  0  0  0  0  0  0  0  0  0
   49.4230  115.9529   55.7106 H   0  0  0  0  0  0  0  0  0  0  0  0
   48.9110  117.4862   56.2534 H   0  0  0  0  0  0  0  0  0  0  0  0
   47.9915  111.4865   54.7311 C   0  0  0  0  0  0  0  0  0  0  0  0
   47.0335  111.2869   54.9367 C   0  0  0  0  0  0  0  0  0  0  0  0
   46.3471  111.3286   54.2107 C   0  0  0  0  0  0  0  0  0  0  0  0
   45.5019  111.8445   54.3508 O   0  0  0  0  0  0  0  0  0  0  0  0
   46.5058  110.8546   53.3446 N   0  0  0  0  0  0  0  0  0  0  0  0
   47.3379  110.3467   53.2068 H   0  0  0  0  0  0  0  0  0  0  0  0
   45.8300  110.8957   52.6299 H   0  0  0  0  0  0  0  0  0  0  0  0
   51.3641  106.8221   57.1579 C   0  0  0  0  0  0  0  0  0  0  0  0
   52.1881  106.6627   57.7014 O   0  0  0  0  0  0  0  0  0  0  0  0
   52.8625  106.0395   57.3885 H   0  0  0  0  0  0  0  0  0  0  0  0
   49.0184  106.9899   60.2585 C   0  0  0  0  0  0  0  0  0  0  0  0
   49.6063  107.4660   60.9124 C   0  0  0  0  0  0  0  0  0  0  0  0
   50.5218  107.1806   61.1959 C   0  0  0  0  0  0  0  0  0  0  0  0
   50.8634  107.8494   61.8564 N   0  0  0  0  0  0  0  0  0  0  0  0
   50.1589  108.5482   61.9809 C   0  0  0  0  0  0  0  0  0  0  0  0
   49.3821  108.3112   61.3975 N   0  0  0  0  0  0  0  0  0  0  0  0
   48.5436  108.8206   61.3152 H   0  0  0  0  0  0  0  0  0  0  0  0
 95 96  1  0  0  0
 95 97  1  0  0  0
 95 98  1  0  0  0
 96 91  1  0  0  0
 96 99  1  0  0  0
 91 92  2  0  0  0
 91 93  1  0  0  0
 93 90  1  0  0  0
 93 94  1  0  0  0
 90103  1  0  0  0
 90 86  1  0  0  0
103104  1  0  0  0
104105  1  0  0  0
105106  2  0  0  0
105107  1  0  0  0
107108  1  0  0  0
107109  1  0  0  0
 86 87  2  0  0  0
 86 88  1  0  0  0
 88 85  1  0  0  0
 88 89  1  0  0  0
 85110  1  0  0  0
 85 81  1  0  0  0
110111  1  0  0  0
111112  1  0  0  0
112113  2  0  0  0
112114  1  0  0  0
114115  1  0  0  0
114116  1  0  0  0
 81 82  2  0  0  0
 81 83  1  0  0  0
 83 79  1  0  0  0
 83 84  1  0  0  0
 79 80  1  0  0  0
 79 75  1  0  0  0
 75 76  2  0  0  0
 75 77  1  0  0  0
 77 74  1  0  0  0
 77 78  1  0  0  0
 74117  1  0  0  0
 74 70  1  0  0  0
117118  1  0  0  0
118119  1  0  0  0
 70 71  2  0  0  0
 70 72  1  0  0  0
 72 69  1  0  0  0
 72 73  1  0  0  0
 69120  1  0  0  0
 69 65  1  0  0  0
120121  1  0  0  0
121125  1  0  0  0
121122  2  0  0  0
122123  1  0  0  0
123124  2  0  0  0
124125  1  0  0  0
125126  1  0  0  0
 65 66  2  0  0  0
 65 67  1  0  0  0
 67  1  1  0  0  0
 67 68  1  0  0  0
  1  2  1  0  0  0
  1 10  1  0  0  0
  2  8  2  0  0  0
  2  3  1  0  0  0
  3  4  2  0  0  0
  4  5  1  0  0  0
  5  6  1  0  0  0
  5  7  2  0  0  0
  6  9  1  0  0  0
  7  8  1  0  0  0
 10 11  2  0  0  0
 10 12  1  0  0  0
 12 14  1  0  0  0
 12 13  1  0  0  0
 14 58  1  0  0  0
 14 15  1  0  0  0
 58 59  1  0  0  0
 59 60  1  0  0  0
 60 61  1  0  0  0
 61 62  1  0  0  0
 62 63  1  0  0  0
 62 64  1  0  0  0
 15 16  2  0  0  0
 15 17  1  0  0  0
 17 19  1  0  0  0
 17 18  1  0  0  0
 19 51  1  0  0  0
 19 20  1  0  0  0
 51 52  1  0  0  0
 52 53  1  0  0  0
 53 54  2  0  0  0
 53 55  1  0  0  0
 55 56  1  0  0  0
 55 57  1  0  0  0
 20 21  2  0  0  0
 20 22  1  0  0  0
 22 24  1  0  0  0
 22 23  1  0  0  0
 24 44  1  0  0  0
 24 25  1  0  0  0
 44 45  1  0  0  0
 45 49  1  0  0  0
 45 46  2  0  0  0
 46 47  1  0  0  0
 47 48  2  0  0  0
 48 49  1  0  0  0
 49 50  1  0  0  0
 25 26  2  0  0  0
 25 27  1  0  0  0
 27 29  1  0  0  0
 27 28  1  0  0  0
 29 41  1  0  0  0
 29 30  1  0  0  0
 41 42  1  0  0  0
 42 43  1  0  0  0
 30 31  2  0  0  0
 30 32  1  0  0  0
 32 36  1  0  0  0
 32 33  1  0  0  0
 33 34  1  0  0  0
 34 35  1  0  0  0
 35 36  1  0  0  0
 36 37  1  0  0  0
 37 38  1  0  0  0
 37 39  2  0  0  0
 38 40  1  0  0  0
 99100  1  0  0  0
 99101  1  0  0  0
100102  1  0  0  0
M  END
> <minimizedAffinity>
-4.89199

$$$$



126129  0  0  0  0  0  0  0  0999 V2000
   44.1973  113.0313   61.8536 C   0  0  0  0  0  0  0  0  0  0  0  0
   43.6838  112.1740   61.8899 C   0  0  0  0  0  0  0  0  0  0  0  0
   42.6841  112.1905   61.9101 C   0  0  0  0  0  0  0  0  0  0  0  0
   42.1706  111.3331   61.9463 C   0  0  0  0  0  0  0  0  0  0  0  0
   42.6567  110.4594   61.9624 C   0  0  0  0  0  0  0  0  0  0  0  0
   42.1431  109.6021   61.9986 O   0  0  0  0  0  0  0  0  0  0  0  0
   43.6563  110.4430   61.9422 C   0  0  0  0  0  0  0  0  0  0  0  0
   44.1699  111.3002   61.9060 C   0  0  0  0  0  0  0  0  0  0  0  0
   41.2065  109.6176   62.0175 H   0  0  0  0  0  0  0  0  0  0  0  0
   44.3819  113.4667   60.9725 C   0  0  0  0  0  0  0  0  0  0  0  0
   43.6344  113.6275   60.3280 O   0  0  0  0  0  0  0  0  0  0  0  0
   45.3139  113.7413   60.7360 N   0  0  0  0  0  0  0  0  0  0  0  0
   46.0497  113.5831   61.3706 H   0  0  0  0  0  0  0  0  0  0  0  0
   45.4985  114.1767   59.8549 C   0  0  0  0  0  0  0  0  0  0  0  0
   46.0519  113.7035   59.1695 C   0  0  0  0  0  0  0  0  0  0  0  0
   47.0427  113.6362   59.2865 O   0  0  0  0  0  0  0  0  0  0  0  0
   45.6144  113.2975   58.3671 N   0  0  0  0  0  0  0  0  0  0  0  0
   44.6389  113.3637   58.2520 H   0  0  0  0  0  0  0  0  0  0  0  0
   46.1678  112.8242   57.6817 C   0  0  0  0  0  0  0  0  0  0  0  0
   46.4744  113.3110   56.8638 C   0  0  0  0  0  0  0  0  0  0  0  0
   45.8427  113.9106   56.3725 O   0  0  0  0  0  0  0  0  0  0  0  0
   47.4129  113.1981   56.5371 N   0  0  0  0  0  0  0  0  0  0  0  0
   48.0348  112.6078   57.0208 H   0  0  0  0  0  0  0  0  0  0  0  0
   47.7195  113.6848   55.7191 C   0  0  0  0  0  0  0  0  0  0  0  0
   47.6576  113.2452   54.8231 C   0  0  0  0  0  0  0  0  0  0  0  0
   47.1803  113.7034   54.0733 O   0  0  0  0  0  0  0  0  0  0  0  0
   48.0731  112.3474   54.6769 N   0  0  0  0  0  0  0  0  0  0  0  0
   48.5430  111.8964   55.4151 H   0  0  0  0  0  0  0  0  0  0  0  0
   48.0112  111.9078   53.7809 C   0  0  0  0  0  0  0  0  0  0  0  0
   48.7349  112.0464   53.1049 C   0  0  0  0  0  0  0  0  0  0  0  0
   48.5088  112.3904   52.1936 O   0  0  0  0  0  0  0  0  0  0  0  0
   49.6849  111.8409   53.3402 N   0  0  0  0  0  0  0  0  0  0  0  0
   50.0108  111.4947   54.2200 C   0  0  0  0  0  0  0  0  0  0  0  0
   51.0031  111.3855   54.1605 C   0  0  0  0  0  0  0  0  0  0  0  0
   51.2903  111.6641   53.2441 C   0  0  0  0  0  0  0  0  0  0  0  0
   50.4757  111.9456   52.7371 C   0  0  0  0  0  0  0  0  0  0  0  0
   50.4554  112.2740   51.7929 C   0  0  0  0  0  0  0  0  0  0  0  0
   50.6459  113.2353   51.5936 O   0  0  0  0  0  0  0  0  0  0  0  0
   50.2444  111.6412   51.0478 O   0  0  0  0  0  0  0  0  0  0  0  0
   50.8436  113.8282   52.2917 H   0  0  0  0  0  0  0  0  0  0  0  0
   47.2255  111.3296   53.5608 C   0  0  0  0  0  0  0  0  0  0  0  0
   47.0691  110.4834   54.0702 S   0  0  0  0  0  0  0  0  0  0  0  0
   47.9248  110.1190   55.0624 H   0  0  0  0  0  0  0  0  0  0  0  0
   48.0880  114.6111   55.7972 C   0  0  0  0  0  0  0  0  0  0  0  0
   49.0618  114.7482   55.9788 C   0  0  0  0  0  0  0  0  0  0  0  0
   49.5059  114.6968   56.8733 C   0  0  0  0  0  0  0  0  0  0  0  0
   50.4810  114.8776   56.7451 N   0  0  0  0  0  0  0  0  0  0  0  0
   50.6396  115.0407   55.7713 C   0  0  0  0  0  0  0  0  0  0  0  0
   49.7624  114.9608   55.2977 N   0  0  0  0  0  0  0  0  0  0  0  0
   49.6147  115.0718   54.3307 H   0  0  0  0  0  0  0  0  0  0  0  0
   46.4145  111.8643   57.8143 C   0  0  0  0  0  0  0  0  0  0  0  0
   45.7192  111.1517   57.7205 C   0  0  0  0  0  0  0  0  0  0  0  0
   45.8812  110.2417   58.1020 C   0  0  0  0  0  0  0  0  0  0  0  0
   45.7622  110.0819   59.0820 O   0  0  0  0  0  0  0  0  0  0  0  0
   46.1622  109.4914   57.5035 N   0  0  0  0  0  0  0  0  0  0  0  0
   46.2793  109.6488   56.5388 H   0  0  0  0  0  0  0  0  0  0  0  0
   46.3217  108.5955   57.8791 H   0  0  0  0  0  0  0  0  0  0  0  0
   45.1297  115.0854   59.6592 C   0  0  0  0  0  0  0  0  0  0  0  0
   45.6381  115.9013   59.9347 C   0  0  0  0  0  0  0  0  0  0  0  0
   45.3745  116.7983   59.5797 C   0  0  0  0  0  0  0  0  0  0  0  0
   44.7235  117.3645   60.0852 C   0  0  0  0  0  0  0  0  0  0  0  0
   44.4018  118.2268   59.6941 N   0  0  0  0  0  0  0  0  0  0  0  0
   44.7376  118.5287   58.7795 H   0  0  0  0  0  0  0  0  0  0  0  0
   43.7378  118.8044   60.2097 H   0  0  0  0  0  0  0  0  0  0  0  0
   44.0519  114.2473   63.0785 C   0  0  0  0  0  0  0  0  0  0  0  0
   43.2485  114.6195   62.6137 O   0  0  0  0  0  0  0  0  0  0  0  0
   44.5263  113.4532   62.6985 N   0  0  0  0  0  0  0  0  0  0  0  0
   45.3172  113.0868   63.1561 H   0  0  0  0  0  0  0  0  0  0  0  0
   44.3809  114.6691   63.9234 C   0  0  0  0  0  0  0  0  0  0  0  0
   45.9386  115.4255   63.8839 C   0  0  0  0  0  0  0  0  0  0  0  0
   45.5451  116.2109   63.4061 O   0  0  0  0  0  0  0  0  0  0  0  0
   45.3565  114.6546   64.1426 N   0  0  0  0  0  0  0  0  0  0  0  0
   45.7438  113.8814   64.6130 H   0  0  0  0  0  0  0  0  0  0  0  0
   46.9141  115.4110   64.1031 C   0  0  0  0  0  0  0  0  0  0  0  0
   48.0193  114.5324   63.0997 C   0  0  0  0  0  0  0  0  0  0  0  0
   48.0430  115.2974   62.4561 O   0  0  0  0  0  0  0  0  0  0  0  0
   47.4549  114.5892   63.9232 N   0  0  0  0  0  0  0  0  0  0  0  0
   47.4315  113.8362   64.5569 H   0  0  0  0  0  0  0  0  0  0  0  0
   48.5600  113.7107   62.9199 C   0  0  0  0  0  0  0  0  0  0  0  0
   49.3194  113.7441   62.2702 C   0  0  0  0  0  0  0  0  0  0  0  0
   47.8327  112.1388   62.9126 C   0  0  0  0  0  0  0  0  0  0  0  0
   47.5427  112.2774   61.9657 O   0  0  0  0  0  0  0  0  0  0  0  0
   48.3413  112.8555   63.3897 N   0  0  0  0  0  0  0  0  0  0  0  0
   48.6267  112.7191   64.3220 H   0  0  0  0  0  0  0  0  0  0  0  0
   47.6139  111.2835   63.3825 C   0  0  0  0  0  0  0  0  0  0  0  0
   48.1817  109.7982   62.6958 C   0  0  0  0  0  0  0  0  0  0  0  0
   49.0933  109.9753   63.0668 O   0  0  0  0  0  0  0  0  0  0  0  0
   47.4420  110.4524   62.8536 N   0  0  0  0  0  0  0  0  0  0  0  0
   46.5446  110.2781   62.4884 H   0  0  0  0  0  0  0  0  0  0  0  0
   48.0099  108.9671   62.1670 C   0  0  0  0  0  0  0  0  0  0  0  0
   47.1849  107.6496   62.9309 C   0  0  0  0  0  0  0  0  0  0  0  0
   48.0333  107.3840   63.3889 O   0  0  0  0  0  0  0  0  0  0  0  0
   47.1732  108.4412   62.3200 N   0  0  0  0  0  0  0  0  0  0  0  0
   46.3380  108.7027   61.8691 H   0  0  0  0  0  0  0  0  0  0  0  0
   46.2248  106.2387   62.6349 N   0  0  0  0  0  0  0  0  0  0  0  0
   46.3482  107.1237   63.0839 C   0  0  0  0  0  0  0  0  0  0  0  0
   45.3715  105.7022   62.7909 H   0  0  0  0  0  0  0  0  0  0  0  0
   46.9524  105.8724   62.0210 H   0  0  0  0  0  0  0  0  0  0  0  0
   45.6349  107.4827   63.6858 C   0  0  0  0  0  0  0  0  0  0  0  0
   45.8847  107.9476   64.5353 O   0  0  0  0  0  0  0  0  0  0  0  0
   44.6719  107.3769   63.4383 C   0  0  0  0  0  0  0  0  0  0  0  0
   46.8190  108.0502   64.7753 H   0  0  0  0  0  0  0  0  0  0  0  0
   48.6746  108.6619   61.4852 C   0  0  0  0  0  0  0  0  0  0  0  0
   48.5251  108.8614   60.5168 C   0  0  0  0  0  0  0  0  0  0  0  0
   49.1238  108.4578   59.8248 C   0  0  0  0  0  0  0  0  0  0  0  0
   50.0776  108.7504   59.7568 O   0  0  0  0  0  0  0  0  0  0  0  0
   48.7686  107.7617   59.2009 N   0  0  0  0  0  0  0  0  0  0  0  0
   47.8296  107.4737   59.2679 H   0  0  0  0  0  0  0  0  0  0  0  0
   49.3580  107.3644   58.5197 H   0  0  0  0  0  0  0  0  0  0  0  0
   47.5670  111.2594   64.3810 C   0  0  0  0  0  0  0  0  0  0  0  0
   46.6796  111.2920   64.8408 C   0  0  0  0  0  0  0  0  0  0  0  0
   46.6246  111.5583   65.8031 C   0  0  0  0  0  0  0  0  0  0  0  0
   46.4549  112.5127   66.0489 O   0  0  0  0  0  0  0  0  0  0  0  0
   46.7393  110.8703   66.5198 N   0  0  0  0  0  0  0  0  0  0  0  0
   46.9063  109.9307   66.2778 H   0  0  0  0  0  0  0  0  0  0  0  0
   46.6851  111.1325   67.4672 H   0  0  0  0  0  0  0  0  0  0  0  0
   47.3490  116.2182   64.5021 C   0  0  0  0  0  0  0  0  0  0  0  0
   47.3085  116.3714   65.4895 O   0  0  0  0  0  0  0  0  0  0  0  0
   47.7303  117.1545   65.8765 H   0  0  0  0  0  0  0  0  0  0  0  0
   43.7343  115.1056   64.5491 C   0  0  0  0  0  0  0  0  0  0  0  0
   43.5237  114.6786   65.4285 C   0  0  0  0  0  0  0  0  0  0  0  0
   43.9269  114.9208   66.3109 C   0  0  0  0  0  0  0  0  0  0  0  0
   43.5254  114.3264   67.0078 N   0  0  0  0  0  0  0  0  0  0  0  0
   42.8740  113.7168   66.5558 C   0  0  0  0  0  0  0  0  0  0  0  0
   42.8731  113.9346   65.5798 N   0  0  0  0  0  0  0  0  0  0  0  0
   42.3273  113.4937   64.8891 H   0  0  0  0  0  0  0  0  0  0  0  0
 95 96  1  0  0  0
 95 97  1  0  0  0
 95 98  1  0  0  0
 96 91  1  0  0  0
 96 99  1  0  0  0
 91 92  2  0  0  0
 91 93  1  0  0  0
 93 90  1  0  0  0
 93 94  1  0  0  0
 90103  1  0  0  0
 90 86  1  0  0  0
103104  1  0  0  0
104105  1  0  0  0
105106  2  0  0  0
105107  1  0  0  0
107108  1  0  0  0
107109  1  0  0  0
 86 87  2  0  0  0
 86 88  1  0  0  0
 88 85  1  0  0  0
 88 89  1  0  0  0
 85110  1  0  0  0
 85 81  1  0  0  0
110111  1  0  0  0
111112  1  0  0  0
112113  2  0  0  0
112114  1  0  0  0
114115  1  0  0  0
114116  1  0  0  0
 81 82  2  0  0  0
 81 83  1  0  0  0
 83 79  1  0  0  0
 83 84  1  0  0  0
 79 80  1  0  0  0
 79 75  1  0  0  0
 75 76  2  0  0  0
 75 77  1  0  0  0
 77 74  1  0  0  0
 77 78  1  0  0  0
 74117  1  0  0  0
 74 70  1  0  0  0
117118  1  0  0  0
118119  1  0  0  0
 70 71  2  0  0  0
 70 72  1  0  0  0
 72 69  1  0  0  0
 72 73  1  0  0  0
 69120  1  0  0  0
 69 65  1  0  0  0
120121  1  0  0  0
121125  1  0  0  0
121122  2  0  0  0
122123  1  0  0  0
123124  2  0  0  0
124125  1  0  0  0
125126  1  0  0  0
 65 66  2  0  0  0
 65 67  1  0  0  0
 67  1  1  0  0  0
 67 68  1  0  0  0
  1  2  1  0  0  0
  1 10  1  0  0  0
  2  8  2  0  0  0
  2  3  1  0  0  0
  3  4  2  0  0  0
  4  5  1  0  0  0
  5  6  1  0  0  0
  5  7  2  0  0  0
  6  9  1  0  0  0
  7  8  1  0  0  0
 10 11  2  0  0  0
 10 12  1  0  0  0
 12 14  1  0  0  0
 12 13  1  0  0  0
 14 58  1  0  0  0
 14 15  1  0  0  0
 58 59  1  0  0  0
 59 60  1  0  0  0
 60 61  1  0  0  0
 61 62  1  0  0  0
 62 63  1  0  0  0
 62 64  1  0  0  0
 15 16  2  0  0  0
 15 17  1  0  0  0
 17 19  1  0  0  0
 17 18  1  0  0  0
 19 51  1  0  0  0
 19 20  1  0  0  0
 51 52  1  0  0  0
 52 53  1  0  0  0
 53 54  2  0  0  0
 53 55  1  0  0  0
 55 56  1  0  0  0
 55 57  1  0  0  0
 20 21  2  0  0  0
 20 22  1  0  0  0
 22 24  1  0  0  0
 22 23  1  0  0  0
 24 44  1  0  0  0
 24 25  1  0  0  0
 44 45  1  0  0  0
 45 49  1  0  0  0
 45 46  2  0  0  0
 46 47  1  0  0  0
 47 48  2  0  0  0
 48 49  1  0  0  0
 49 50  1  0  0  0
 25 26  2  0  0  0
 25 27  1  0  0  0
 27 29  1  0  0  0
 27 28  1  0  0  0
 29 41  1  0  0  0
 29 30  1  0  0  0
 41 42  1  0  0  0
 42 43  1  0  0  0
 30 31  2  0  0  0
 30 32  1  0  0  0
 32 36  1  0  0  0
 32 33  1  0  0  0
 33 34  1  0  0  0
 34 35  1  0  0  0
 35 36  1  0  0  0
 36 37  1  0  0  0
 37 38  1  0  0  0
 37 39  2  0  0  0
 38 40  1  0  0  0
 99100  1  0  0  0
 99101  1  0  0  0
100102  1  0  0  0
M  END
> <minimizedAffinity>
-4.88815

$$$$



126129  0  0  0  0  0  0  0  0999 V2000
   47.3997  107.6351   57.0565 C   0  0  0  0  0  0  0  0  0  0  0  0
   46.8044  107.1165   56.4428 C   0  0  0  0  0  0  0  0  0  0  0  0
   47.1630  106.7634   55.5786 C   0  0  0  0  0  0  0  0  0  0  0  0
   46.5677  106.2447   54.9649 C   0  0  0  0  0  0  0  0  0  0  0  0
   45.6138  106.0793   55.2153 C   0  0  0  0  0  0  0  0  0  0  0  0
   45.0185  105.5607   54.6016 O   0  0  0  0  0  0  0  0  0  0  0  0
   45.2552  106.4324   56.0794 C   0  0  0  0  0  0  0  0  0  0  0  0
   45.8505  106.9510   56.6931 C   0  0  0  0  0  0  0  0  0  0  0  0
   45.3545  105.2298   53.7919 H   0  0  0  0  0  0  0  0  0  0  0  0
   47.5638  108.6074   56.8903 C   0  0  0  0  0  0  0  0  0  0  0  0
   47.2437  109.2883   57.5491 O   0  0  0  0  0  0  0  0  0  0  0  0
   48.0481  108.8989   56.0654 N   0  0  0  0  0  0  0  0  0  0  0  0
   48.3633  108.2287   55.4168 H   0  0  0  0  0  0  0  0  0  0  0  0
   48.2122  109.8713   55.8992 C   0  0  0  0  0  0  0  0  0  0  0  0
   49.1021  110.2725   56.1163 C   0  0  0  0  0  0  0  0  0  0  0  0
   49.1569  111.0771   56.7076 O   0  0  0  0  0  0  0  0  0  0  0  0
   49.9371  109.8690   55.7423 N   0  0  0  0  0  0  0  0  0  0  0  0
   49.8831  109.0769   55.1602 H   0  0  0  0  0  0  0  0  0  0  0  0
   50.8270  110.2702   55.9594 C   0  0  0  0  0  0  0  0  0  0  0  0
   51.1693  111.0450   55.4280 C   0  0  0  0  0  0  0  0  0  0  0  0
   51.2742  111.9406   55.8603 O   0  0  0  0  0  0  0  0  0  0  0  0
   51.4066  110.9243   54.4640 N   0  0  0  0  0  0  0  0  0  0  0  0
   51.3033  110.0426   54.0383 H   0  0  0  0  0  0  0  0  0  0  0  0
   51.7489  111.6991   53.9325 C   0  0  0  0  0  0  0  0  0  0  0  0
   52.7330  111.8217   53.8043 C   0  0  0  0  0  0  0  0  0  0  0  0
   53.1766  112.6626   54.1143 O   0  0  0  0  0  0  0  0  0  0  0  0
   53.2734  111.1035   53.3661 N   0  0  0  0  0  0  0  0  0  0  0  0
   52.8366  110.2757   53.0609 H   0  0  0  0  0  0  0  0  0  0  0  0
   54.2575  111.2261   53.2378 C   0  0  0  0  0  0  0  0  0  0  0  0
   54.6013  111.6929   52.4230 C   0  0  0  0  0  0  0  0  0  0  0  0
   55.0524  112.5812   52.5086 O   0  0  0  0  0  0  0  0  0  0  0  0
   54.4939  111.2712   51.5226 N   0  0  0  0  0  0  0  0  0  0  0  0
   54.0596  110.3905   51.3340 C   0  0  0  0  0  0  0  0  0  0  0  0
   54.0993  110.2314   50.3475 C   0  0  0  0  0  0  0  0  0  0  0  0
   54.5582  111.0138   49.9265 C   0  0  0  0  0  0  0  0  0  0  0  0
   54.8021  111.6564   50.6527 C   0  0  0  0  0  0  0  0  0  0  0  0
   55.2717  112.5308   50.5306 C   0  0  0  0  0  0  0  0  0  0  0  0
   54.7420  113.3688   50.3992 O   0  0  0  0  0  0  0  0  0  0  0  0
   56.2710  112.5672   50.5397 O   0  0  0  0  0  0  0  0  0  0  0  0
   53.8057  113.3346   50.3906 H   0  0  0  0  0  0  0  0  0  0  0  0
   54.8980  110.8818   53.9245 C   0  0  0  0  0  0  0  0  0  0  0  0
   54.9020  109.9105   54.1621 S   0  0  0  0  0  0  0  0  0  0  0  0
   54.0364  109.0575   53.5515 H   0  0  0  0  0  0  0  0  0  0  0  0
   51.1070  112.3513   53.5292 C   0  0  0  0  0  0  0  0  0  0  0  0
   50.7244  112.1800   52.6214 C   0  0  0  0  0  0  0  0  0  0  0  0
   49.8303  111.7764   52.4269 C   0  0  0  0  0  0  0  0  0  0  0  0
   49.7219  111.7292   51.4339 N   0  0  0  0  0  0  0  0  0  0  0  0
   50.5490  112.1037   51.0146 C   0  0  0  0  0  0  0  0  0  0  0  0
   51.1685  112.3823   51.7486 N   0  0  0  0  0  0  0  0  0  0  0  0
   52.0594  112.7850   51.6322 H   0  0  0  0  0  0  0  0  0  0  0  0
   51.3746  109.8965   56.7081 C   0  0  0  0  0  0  0  0  0  0  0  0
   51.8211  109.0076   56.6057 C   0  0  0  0  0  0  0  0  0  0  0  0
   52.4195  108.6624   57.3287 C   0  0  0  0  0  0  0  0  0  0  0  0
   52.2646  108.9347   58.2785 O   0  0  0  0  0  0  0  0  0  0  0  0
   53.1728  108.0451   57.1021 N   0  0  0  0  0  0  0  0  0  0  0  0
   53.3252  107.7771   56.1671 H   0  0  0  0  0  0  0  0  0  0  0  0
   53.7619  107.7052   57.8139 H   0  0  0  0  0  0  0  0  0  0  0  0
   47.4864  110.4425   55.5158 C   0  0  0  0  0  0  0  0  0  0  0  0
   47.3057  110.4281   54.5323 C   0  0  0  0  0  0  0  0  0  0  0  0
   46.4530  110.8093   54.1750 C   0  0  0  0  0  0  0  0  0  0  0  0
   46.4691  111.6506   53.6347 C   0  0  0  0  0  0  0  0  0  0  0  0
   46.5209  111.6032   52.6372 N   0  0  0  0  0  0  0  0  0  0  0  0
   46.5572  110.6968   52.1708 H   0  0  0  0  0  0  0  0  0  0  0  0
   46.5373  112.4613   52.0860 H   0  0  0  0  0  0  0  0  0  0  0  0
   48.7802  106.8734   57.7734 C   0  0  0  0  0  0  0  0  0  0  0  0
   49.2984  107.0191   56.9306 O   0  0  0  0  0  0  0  0  0  0  0  0
   47.8309  107.1814   57.8363 N   0  0  0  0  0  0  0  0  0  0  0  0
   47.3208  107.0379   58.6660 H   0  0  0  0  0  0  0  0  0  0  0  0
   49.2114  106.4197   58.5533 C   0  0  0  0  0  0  0  0  0  0  0  0
   49.0187  107.1720   60.1015 C   0  0  0  0  0  0  0  0  0  0  0  0
   49.6967  107.8628   59.8502 O   0  0  0  0  0  0  0  0  0  0  0  0
   48.7761  106.4505   59.4530 N   0  0  0  0  0  0  0  0  0  0  0  0
   48.1086  105.7703   59.7004 H   0  0  0  0  0  0  0  0  0  0  0  0
   48.5834  107.2028   61.0012 C   0  0  0  0  0  0  0  0  0  0  0  0
   46.8982  107.2078   61.4012 C   0  0  0  0  0  0  0  0  0  0  0  0
   46.9319  106.2203   61.5554 O   0  0  0  0  0  0  0  0  0  0  0  0
   47.7240  107.6990   61.1241 N   0  0  0  0  0  0  0  0  0  0  0  0
   47.6908  108.6711   60.9723 H   0  0  0  0  0  0  0  0  0  0  0  0
   46.0387  107.7040   61.5241 C   0  0  0  0  0  0  0  0  0  0  0  0
   45.1895  107.2010   61.6843 C   0  0  0  0  0  0  0  0  0  0  0  0
   45.5922  109.1705   60.7180 C   0  0  0  0  0  0  0  0  0  0  0  0
   45.1661  108.6385   59.9863 O   0  0  0  0  0  0  0  0  0  0  0  0
   46.0286  108.7032   61.4869 N   0  0  0  0  0  0  0  0  0  0  0  0
   46.4481  109.2270   62.2072 H   0  0  0  0  0  0  0  0  0  0  0  0
   45.5820  110.1698   60.6807 C   0  0  0  0  0  0  0  0  0  0  0  0
   46.9722  111.1738   60.4371 C   0  0  0  0  0  0  0  0  0  0  0  0
   47.1189  111.2105   61.4255 O   0  0  0  0  0  0  0  0  0  0  0  0
   46.2037  110.6535   60.0646 N   0  0  0  0  0  0  0  0  0  0  0  0
   46.0592  110.6174   59.0915 H   0  0  0  0  0  0  0  0  0  0  0  0
   47.5939  111.6575   59.8210 C   0  0  0  0  0  0  0  0  0  0  0  0
   46.9746  112.9365   58.8306 C   0  0  0  0  0  0  0  0  0  0  0  0
   47.0125  113.5597   59.6117 O   0  0  0  0  0  0  0  0  0  0  0  0
   47.2654  111.9854   58.9353 N   0  0  0  0  0  0  0  0  0  0  0  0
   47.2281  111.3718   58.1663 H   0  0  0  0  0  0  0  0  0  0  0  0
   47.2984  113.5740   57.2530 N   0  0  0  0  0  0  0  0  0  0  0  0
   46.6461  113.2643   57.9448 C   0  0  0  0  0  0  0  0  0  0  0  0
   46.9634  113.9084   56.3496 H   0  0  0  0  0  0  0  0  0  0  0  0
   48.2989  113.5555   57.4510 H   0  0  0  0  0  0  0  0  0  0  0  0
   45.6653  113.2824   57.7508 C   0  0  0  0  0  0  0  0  0  0  0  0
   45.0080  113.3411   58.5021 O   0  0  0  0  0  0  0  0  0  0  0  0
   45.3418  113.2419   56.8055 C   0  0  0  0  0  0  0  0  0  0  0  0
   45.3218  113.3804   59.4192 H   0  0  0  0  0  0  0  0  0  0  0  0
   48.5441  111.8134   60.0907 C   0  0  0  0  0  0  0  0  0  0  0  0
   49.2507  111.1529   59.8367 C   0  0  0  0  0  0  0  0  0  0  0  0
   50.2166  111.4026   59.9056 C   0  0  0  0  0  0  0  0  0  0  0  0
   50.5222  112.3058   59.6043 O   0  0  0  0  0  0  0  0  0  0  0  0
   50.8768  110.7491   60.2757 N   0  0  0  0  0  0  0  0  0  0  0  0
   50.5759  109.8599   60.5723 H   0  0  0  0  0  0  0  0  0  0  0  0
   51.8277  110.9950   60.3435 H   0  0  0  0  0  0  0  0  0  0  0  0
   44.9502  110.6853   61.2594 C   0  0  0  0  0  0  0  0  0  0  0  0
   44.0665  110.9802   60.8959 C   0  0  0  0  0  0  0  0  0  0  0  0
   43.5730  111.7332   61.3310 C   0  0  0  0  0  0  0  0  0  0  0  0
   43.8533  112.6782   61.1628 O   0  0  0  0  0  0  0  0  0  0  0  0
   42.7990  111.5412   61.9346 N   0  0  0  0  0  0  0  0  0  0  0  0
   42.5230  110.6108   62.1002 H   0  0  0  0  0  0  0  0  0  0  0  0
   42.3131  112.2826   62.3630 H   0  0  0  0  0  0  0  0  0  0  0  0
   49.0075  106.7374   61.7780 C   0  0  0  0  0  0  0  0  0  0  0  0
   49.5832  107.2504   62.4148 O   0  0  0  0  0  0  0  0  0  0  0  0
   49.9946  106.7989   63.1683 H   0  0  0  0  0  0  0  0  0  0  0  0
   50.0780  105.9351   58.4334 C   0  0  0  0  0  0  0  0  0  0  0  0
   50.0925  104.9356   58.4076 C   0  0  0  0  0  0  0  0  0  0  0  0
   50.3255  104.3313   59.1695 C   0  0  0  0  0  0  0  0  0  0  0  0
   50.2537  103.3870   58.8482 N   0  0  0  0  0  0  0  0  0  0  0  0
   49.9763  103.4078   57.8876 C   0  0  0  0  0  0  0  0  0  0  0  0
   49.8767  104.3649   57.6154 N   0  0  0  0  0  0  0  0  0  0  0  0
   49.6126  104.6884   56.7239 H   0  0  0  0  0  0  0  0  0  0  0  0
 95 96  1  0  0  0
 95 97  1  0  0  0
 95 98  1  0  0  0
 96 91  1  0  0  0
 96 99  1  0  0  0
 91 92  2  0  0  0
 91 93  1  0  0  0
 93 90  1  0  0  0
 93 94  1  0  0  0
 90103  1  0  0  0
 90 86  1  0  0  0
103104  1  0  0  0
104105  1  0  0  0
105106  2  0  0  0
105107  1  0  0  0
107108  1  0  0  0
107109  1  0  0  0
 86 87  2  0  0  0
 86 88  1  0  0  0
 88 85  1  0  0  0
 88 89  1  0  0  0
 85110  1  0  0  0
 85 81  1  0  0  0
110111  1  0  0  0
111112  1  0  0  0
112113  2  0  0  0
112114  1  0  0  0
114115  1  0  0  0
114116  1  0  0  0
 81 82  2  0  0  0
 81 83  1  0  0  0
 83 79  1  0  0  0
 83 84  1  0  0  0
 79 80  1  0  0  0
 79 75  1  0  0  0
 75 76  2  0  0  0
 75 77  1  0  0  0
 77 74  1  0  0  0
 77 78  1  0  0  0
 74117  1  0  0  0
 74 70  1  0  0  0
117118  1  0  0  0
118119  1  0  0  0
 70 71  2  0  0  0
 70 72  1  0  0  0
 72 69  1  0  0  0
 72 73  1  0  0  0
 69120  1  0  0  0
 69 65  1  0  0  0
120121  1  0  0  0
121125  1  0  0  0
121122  2  0  0  0
122123  1  0  0  0
123124  2  0  0  0
124125  1  0  0  0
125126  1  0  0  0
 65 66  2  0  0  0
 65 67  1  0  0  0
 67  1  1  0  0  0
 67 68  1  0  0  0
  1  2  1  0  0  0
  1 10  1  0  0  0
  2  8  2  0  0  0
  2  3  1  0  0  0
  3  4  2  0  0  0
  4  5  1  0  0  0
  5  6  1  0  0  0
  5  7  2  0  0  0
  6  9  1  0  0  0
  7  8  1  0  0  0
 10 11  2  0  0  0
 10 12  1  0  0  0
 12 14  1  0  0  0
 12 13  1  0  0  0
 14 58  1  0  0  0
 14 15  1  0  0  0
 58 59  1  0  0  0
 59 60  1  0  0  0
 60 61  1  0  0  0
 61 62  1  0  0  0
 62 63  1  0  0  0
 62 64  1  0  0  0
 15 16  2  0  0  0
 15 17  1  0  0  0
 17 19  1  0  0  0
 17 18  1  0  0  0
 19 51  1  0  0  0
 19 20  1  0  0  0
 51 52  1  0  0  0
 52 53  1  0  0  0
 53 54  2  0  0  0
 53 55  1  0  0  0
 55 56  1  0  0  0
 55 57  1  0  0  0
 20 21  2  0  0  0
 20 22  1  0  0  0
 22 24  1  0  0  0
 22 23  1  0  0  0
 24 44  1  0  0  0
 24 25  1  0  0  0
 44 45  1  0  0  0
 45 49  1  0  0  0
 45 46  2  0  0  0
 46 47  1  0  0  0
 47 48  2  0  0  0
 48 49  1  0  0  0
 49 50  1  0  0  0
 25 26  2  0  0  0
 25 27  1  0  0  0
 27 29  1  0  0  0
 27 28  1  0  0  0
 29 41  1  0  0  0
 29 30  1  0  0  0
 41 42  1  0  0  0
 42 43  1  0  0  0
 30 31  2  0  0  0
 30 32  1  0  0  0
 32 36  1  0  0  0
 32 33  1  0  0  0
 33 34  1  0  0  0
 34 35  1  0  0  0
 35 36  1  0  0  0
 36 37  1  0  0  0
 37 38  1  0  0  0
 37 39  2  0  0  0
 38 40  1  0  0  0
 99100  1  0  0  0
 99101  1  0  0  0
100102  1  0  0  0
M  END
> <minimizedAffinity>
-4.87280

$$$$



126129  0  0  0  0  0  0  0  0999 V2000
   46.0527  108.4752   56.7767 C   0  0  0  0  0  0  0  0  0  0  0  0
   46.0219  107.5797   56.3326 C   0  0  0  0  0  0  0  0  0  0  0  0
   45.1466  107.1115   56.2115 C   0  0  0  0  0  0  0  0  0  0  0  0
   45.1158  106.2160   55.7674 C   0  0  0  0  0  0  0  0  0  0  0  0
   45.9603  105.7888   55.4444 C   0  0  0  0  0  0  0  0  0  0  0  0
   45.9295  104.8934   55.0003 O   0  0  0  0  0  0  0  0  0  0  0  0
   46.8356  106.2570   55.5655 C   0  0  0  0  0  0  0  0  0  0  0  0
   46.8664  107.1525   56.0096 C   0  0  0  0  0  0  0  0  0  0  0  0
   45.1094  104.4547   54.8868 H   0  0  0  0  0  0  0  0  0  0  0  0
   46.2562  108.5421   57.7535 C   0  0  0  0  0  0  0  0  0  0  0  0
   47.1993  108.4562   58.0748 O   0  0  0  0  0  0  0  0  0  0  0  0
   45.5166  108.6948   58.4089 N   0  0  0  0  0  0  0  0  0  0  0  0
   44.5881  108.7794   58.0926 H   0  0  0  0  0  0  0  0  0  0  0  0
   45.7201  108.7618   59.3858 C   0  0  0  0  0  0  0  0  0  0  0  0
   45.7525  107.9351   59.9475 C   0  0  0  0  0  0  0  0  0  0  0  0
   45.1193  107.1826   59.7667 O   0  0  0  0  0  0  0  0  0  0  0  0
   46.4182  107.8610   60.6901 N   0  0  0  0  0  0  0  0  0  0  0  0
   47.0415  108.6019   60.8681 H   0  0  0  0  0  0  0  0  0  0  0  0
   46.4506  107.0344   61.2519 C   0  0  0  0  0  0  0  0  0  0  0  0
   47.1882  106.3714   61.1237 C   0  0  0  0  0  0  0  0  0  0  0  0
   48.1387  106.6807   61.0931 O   0  0  0  0  0  0  0  0  0  0  0  0
   46.9754  105.3992   61.0261 N   0  0  0  0  0  0  0  0  0  0  0  0
   46.0396  105.0947   61.0563 H   0  0  0  0  0  0  0  0  0  0  0  0
   47.7129  104.7362   60.8980 C   0  0  0  0  0  0  0  0  0  0  0  0
   47.9741  104.4509   59.9758 C   0  0  0  0  0  0  0  0  0  0  0  0
   47.2692  104.2707   59.2898 O   0  0  0  0  0  0  0  0  0  0  0  0
   48.9401  104.3458   59.7397 N   0  0  0  0  0  0  0  0  0  0  0  0
   49.6340  104.5232   60.4151 H   0  0  0  0  0  0  0  0  0  0  0  0
   49.2012  104.0605   58.8175 C   0  0  0  0  0  0  0  0  0  0  0  0
   49.6355  104.7129   58.1964 C   0  0  0  0  0  0  0  0  0  0  0  0
   49.1886  104.9576   57.3360 O   0  0  0  0  0  0  0  0  0  0  0  0
   50.5167  105.1206   58.4358 N   0  0  0  0  0  0  0  0  0  0  0  0
   51.0405  104.9411   59.2685 C   0  0  0  0  0  0  0  0  0  0  0  0
   51.8764  105.4890   59.2318 C   0  0  0  0  0  0  0  0  0  0  0  0
   51.8690  106.0069   58.3764 C   0  0  0  0  0  0  0  0  0  0  0  0
   51.0287  105.7792   57.8845 C   0  0  0  0  0  0  0  0  0  0  0  0
   50.7495  106.1459   56.9971 C   0  0  0  0  0  0  0  0  0  0  0  0
   51.0479  105.6974   56.1545 O   0  0  0  0  0  0  0  0  0  0  0  0
   50.1718  106.9610   56.9521 O   0  0  0  0  0  0  0  0  0  0  0  0
   51.5891  104.9337   56.1966 H   0  0  0  0  0  0  0  0  0  0  0  0
   49.0281  103.1227   58.5164 C   0  0  0  0  0  0  0  0  0  0  0  0
   49.6544  102.3891   58.7803 S   0  0  0  0  0  0  0  0  0  0  0  0
   50.7416  102.6668   59.5486 H   0  0  0  0  0  0  0  0  0  0  0  0
   48.1894  104.3586   61.6919 C   0  0  0  0  0  0  0  0  0  0  0  0
   47.7238  103.7078   62.2915 C   0  0  0  0  0  0  0  0  0  0  0  0
   47.4580  103.8702   63.2418 C   0  0  0  0  0  0  0  0  0  0  0  0
   47.0121  103.0430   63.5837 N   0  0  0  0  0  0  0  0  0  0  0  0
   47.0023  102.3692   62.8448 C   0  0  0  0  0  0  0  0  0  0  0  0
   47.4422  102.7801   62.0462 N   0  0  0  0  0  0  0  0  0  0  0  0
   47.5747  102.3473   61.1719 H   0  0  0  0  0  0  0  0  0  0  0  0
   45.7455  106.8707   61.9418 C   0  0  0  0  0  0  0  0  0  0  0  0
   45.7837  107.3491   62.8191 C   0  0  0  0  0  0  0  0  0  0  0  0
   45.0552  107.2191   63.4917 C   0  0  0  0  0  0  0  0  0  0  0  0
   45.1910  106.5957   64.2618 O   0  0  0  0  0  0  0  0  0  0  0  0
   44.1909  107.7125   63.3942 N   0  0  0  0  0  0  0  0  0  0  0  0
   44.0572  108.3261   62.6360 H   0  0  0  0  0  0  0  0  0  0  0  0
   43.4736  107.5845   64.0563 H   0  0  0  0  0  0  0  0  0  0  0  0
   45.8911  109.6554   59.8008 C   0  0  0  0  0  0  0  0  0  0  0  0
   45.1232  110.2361   60.0714 C   0  0  0  0  0  0  0  0  0  0  0  0
   45.2573  111.2203   60.1875 C   0  0  0  0  0  0  0  0  0  0  0  0
   44.4675  111.8219   60.3069 C   0  0  0  0  0  0  0  0  0  0  0  0
   44.4642  112.7312   59.8909 N   0  0  0  0  0  0  0  0  0  0  0  0
   45.2664  113.0451   59.3447 H   0  0  0  0  0  0  0  0  0  0  0  0
   43.6586  113.3448   60.0127 H   0  0  0  0  0  0  0  0  0  0  0  0
   46.6054  109.9815   56.1245 C   0  0  0  0  0  0  0  0  0  0  0  0
   47.5036  109.8308   56.5376 O   0  0  0  0  0  0  0  0  0  0  0  0
   45.8800  109.3037   56.2440 N   0  0  0  0  0  0  0  0  0  0  0  0
   44.9958  109.4520   55.8373 H   0  0  0  0  0  0  0  0  0  0  0  0
   46.4327  110.8100   55.5918 C   0  0  0  0  0  0  0  0  0  0  0  0
   45.9832  112.1450   56.5997 C   0  0  0  0  0  0  0  0  0  0  0  0
   45.1245  111.6851   56.8259 O   0  0  0  0  0  0  0  0  0  0  0  0
   46.6373  111.7074   55.9827 N   0  0  0  0  0  0  0  0  0  0  0  0
   47.4827  112.1602   55.7600 H   0  0  0  0  0  0  0  0  0  0  0  0
   46.1878  113.0424   56.9905 C   0  0  0  0  0  0  0  0  0  0  0  0
   47.6079  113.7631   57.6717 C   0  0  0  0  0  0  0  0  0  0  0  0
   47.7180  114.3225   56.8502 O   0  0  0  0  0  0  0  0  0  0  0  0
   46.8428  113.1230   57.7419 N   0  0  0  0  0  0  0  0  0  0  0  0
   46.7343  112.5722   58.5506 H   0  0  0  0  0  0  0  0  0  0  0  0
   48.2628  113.8437   58.4231 C   0  0  0  0  0  0  0  0  0  0  0  0
   49.0704  114.4248   58.3222 C   0  0  0  0  0  0  0  0  0  0  0  0
   48.2452  113.8001   60.1544 C   0  0  0  0  0  0  0  0  0  0  0  0
   48.5327  114.7575   60.1814 O   0  0  0  0  0  0  0  0  0  0  0  0
   48.1103  113.3432   59.2753 N   0  0  0  0  0  0  0  0  0  0  0  0
   47.8272  112.4007   59.2487 H   0  0  0  0  0  0  0  0  0  0  0  0
   48.0926  113.2997   61.0067 C   0  0  0  0  0  0  0  0  0  0  0  0
   49.1350  111.9811   61.4246 C   0  0  0  0  0  0  0  0  0  0  0  0
   49.8196  112.6285   61.7596 O   0  0  0  0  0  0  0  0  0  0  0  0
   48.2715  112.3167   61.0482 N   0  0  0  0  0  0  0  0  0  0  0  0
   47.5975  111.6794   60.7184 H   0  0  0  0  0  0  0  0  0  0  0  0
   49.3140  110.9981   61.4661 C   0  0  0  0  0  0  0  0  0  0  0  0
   48.9074  110.0476   62.8558 C   0  0  0  0  0  0  0  0  0  0  0  0
   47.9737  109.9454   62.5127 O   0  0  0  0  0  0  0  0  0  0  0  0
   49.5775  110.5740   62.3325 N   0  0  0  0  0  0  0  0  0  0  0  0
   50.4968  110.6747   62.6702 H   0  0  0  0  0  0  0  0  0  0  0  0
   49.4091  110.1958   64.5070 N   0  0  0  0  0  0  0  0  0  0  0  0
   49.1710  109.6235   63.7222 C   0  0  0  0  0  0  0  0  0  0  0  0
   49.6780  109.7632   65.3907 H   0  0  0  0  0  0  0  0  0  0  0  0
   49.3831  111.2121   64.4237 H   0  0  0  0  0  0  0  0  0  0  0  0
   49.1966  108.6272   63.8039 C   0  0  0  0  0  0  0  0  0  0  0  0
   49.7208  108.0850   63.1472 O   0  0  0  0  0  0  0  0  0  0  0  0
   48.6979  108.1731   64.5422 C   0  0  0  0  0  0  0  0  0  0  0  0
   50.2045  108.5255   62.4310 H   0  0  0  0  0  0  0  0  0  0  0  0
   49.2293  110.4393   60.6412 C   0  0  0  0  0  0  0  0  0  0  0  0
   50.0409  110.2227   60.0985 C   0  0  0  0  0  0  0  0  0  0  0  0
   50.0799  109.3715   59.5750 C   0  0  0  0  0  0  0  0  0  0  0  0
   50.3277  108.5159   60.0295 O   0  0  0  0  0  0  0  0  0  0  0  0
   49.8712  109.3760   58.5971 N   0  0  0  0  0  0  0  0  0  0  0  0
   49.6273  110.2183   58.1497 H   0  0  0  0  0  0  0  0  0  0  0  0
   49.9096  108.5380   58.0818 H   0  0  0  0  0  0  0  0  0  0  0  0
   47.7611  113.7822   61.8174 C   0  0  0  0  0  0  0  0  0  0  0  0
   46.8923  113.5179   62.2362 C   0  0  0  0  0  0  0  0  0  0  0  0
   46.3765  114.1811   62.7784 C   0  0  0  0  0  0  0  0  0  0  0  0
   45.4749  114.4853   62.4707 O   0  0  0  0  0  0  0  0  0  0  0  0
   46.7621  114.5402   63.6284 N   0  0  0  0  0  0  0  0  0  0  0  0
   47.6497  114.2407   63.9313 H   0  0  0  0  0  0  0  0  0  0  0  0
   46.2542  115.1931   64.1622 H   0  0  0  0  0  0  0  0  0  0  0  0
   45.7374  113.8592   56.6300 C   0  0  0  0  0  0  0  0  0  0  0  0
   44.7807  113.8168   56.3423 O   0  0  0  0  0  0  0  0  0  0  0  0
   44.3438  114.6092   55.9926 H   0  0  0  0  0  0  0  0  0  0  0  0
   46.0554  110.7411   54.6682 C   0  0  0  0  0  0  0  0  0  0  0  0
   46.5580  111.1236   53.8929 C   0  0  0  0  0  0  0  0  0  0  0  0
   47.4505  110.8170   53.5622 C   0  0  0  0  0  0  0  0  0  0  0  0
   47.7005  111.3837   52.7770 N   0  0  0  0  0  0  0  0  0  0  0  0
   46.9624  112.0406   52.6226 C   0  0  0  0  0  0  0  0  0  0  0  0
   46.2564  111.8797   53.3123 N   0  0  0  0  0  0  0  0  0  0  0  0
   45.4124  112.3784   53.4036 H   0  0  0  0  0  0  0  0  0  0  0  0
 95 96  1  0  0  0
 95 97  1  0  0  0
 95 98  1  0  0  0
 96 91  1  0  0  0
 96 99  1  0  0  0
 91 92  2  0  0  0
 91 93  1  0  0  0
 93 90  1  0  0  0
 93 94  1  0  0  0
 90103  1  0  0  0
 90 86  1  0  0  0
103104  1  0  0  0
104105  1  0  0  0
105106  2  0  0  0
105107  1  0  0  0
107108  1  0  0  0
107109  1  0  0  0
 86 87  2  0  0  0
 86 88  1  0  0  0
 88 85  1  0  0  0
 88 89  1  0  0  0
 85110  1  0  0  0
 85 81  1  0  0  0
110111  1  0  0  0
111112  1  0  0  0
112113  2  0  0  0
112114  1  0  0  0
114115  1  0  0  0
114116  1  0  0  0
 81 82  2  0  0  0
 81 83  1  0  0  0
 83 79  1  0  0  0
 83 84  1  0  0  0
 79 80  1  0  0  0
 79 75  1  0  0  0
 75 76  2  0  0  0
 75 77  1  0  0  0
 77 74  1  0  0  0
 77 78  1  0  0  0
 74117  1  0  0  0
 74 70  1  0  0  0
117118  1  0  0  0
118119  1  0  0  0
 70 71  2  0  0  0
 70 72  1  0  0  0
 72 69  1  0  0  0
 72 73  1  0  0  0
 69120  1  0  0  0
 69 65  1  0  0  0
120121  1  0  0  0
121125  1  0  0  0
121122  2  0  0  0
122123  1  0  0  0
123124  2  0  0  0
124125  1  0  0  0
125126  1  0  0  0
 65 66  2  0  0  0
 65 67  1  0  0  0
 67  1  1  0  0  0
 67 68  1  0  0  0
  1  2  1  0  0  0
  1 10  1  0  0  0
  2  8  2  0  0  0
  2  3  1  0  0  0
  3  4  2  0  0  0
  4  5  1  0  0  0
  5  6  1  0  0  0
  5  7  2  0  0  0
  6  9  1  0  0  0
  7  8  1  0  0  0
 10 11  2  0  0  0
 10 12  1  0  0  0
 12 14  1  0  0  0
 12 13  1  0  0  0
 14 58  1  0  0  0
 14 15  1  0  0  0
 58 59  1  0  0  0
 59 60  1  0  0  0
 60 61  1  0  0  0
 61 62  1  0  0  0
 62 63  1  0  0  0
 62 64  1  0  0  0
 15 16  2  0  0  0
 15 17  1  0  0  0
 17 19  1  0  0  0
 17 18  1  0  0  0
 19 51  1  0  0  0
 19 20  1  0  0  0
 51 52  1  0  0  0
 52 53  1  0  0  0
 53 54  2  0  0  0
 53 55  1  0  0  0
 55 56  1  0  0  0
 55 57  1  0  0  0
 20 21  2  0  0  0
 20 22  1  0  0  0
 22 24  1  0  0  0
 22 23  1  0  0  0
 24 44  1  0  0  0
 24 25  1  0  0  0
 44 45  1  0  0  0
 45 49  1  0  0  0
 45 46  2  0  0  0
 46 47  1  0  0  0
 47 48  2  0  0  0
 48 49  1  0  0  0
 49 50  1  0  0  0
 25 26  2  0  0  0
 25 27  1  0  0  0
 27 29  1  0  0  0
 27 28  1  0  0  0
 29 41  1  0  0  0
 29 30  1  0  0  0
 41 42  1  0  0  0
 42 43  1  0  0  0
 30 31  2  0  0  0
 30 32  1  0  0  0
 32 36  1  0  0  0
 32 33  1  0  0  0
 33 34  1  0  0  0
 34 35  1  0  0  0
 35 36  1  0  0  0
 36 37  1  0  0  0
 37 38  1  0  0  0
 37 39  2  0  0  0
 38 40  1  0  0  0
 99100  1  0  0  0
 99101  1  0  0  0
100102  1  0  0  0
M  END
> <minimizedAffinity>
-4.87227

$$$$



126129  0  0  0  0  0  0  0  0999 V2000
   46.7142  107.3095   57.8649 C   0  0  0  0  0  0  0  0  0  0  0  0
   46.4102  106.8784   57.0154 C   0  0  0  0  0  0  0  0  0  0  0  0
   45.5317  106.4017   56.9830 C   0  0  0  0  0  0  0  0  0  0  0  0
   45.2278  105.9706   56.1334 C   0  0  0  0  0  0  0  0  0  0  0  0
   45.8023  106.0162   55.3162 C   0  0  0  0  0  0  0  0  0  0  0  0
   45.4983  105.5851   54.4666 O   0  0  0  0  0  0  0  0  0  0  0  0
   46.6807  106.4929   55.3485 C   0  0  0  0  0  0  0  0  0  0  0  0
   46.9847  106.9240   56.1980 C   0  0  0  0  0  0  0  0  0  0  0  0
   44.6751  105.1385   54.4364 H   0  0  0  0  0  0  0  0  0  0  0  0
   46.1813  108.0546   58.2660 C   0  0  0  0  0  0  0  0  0  0  0  0
   45.1950  107.9511   58.3944 O   0  0  0  0  0  0  0  0  0  0  0  0
   46.6348  108.9031   58.5386 N   0  0  0  0  0  0  0  0  0  0  0  0
   47.6058  109.0049   58.4122 H   0  0  0  0  0  0  0  0  0  0  0  0
   46.1020  109.6483   58.9397 C   0  0  0  0  0  0  0  0  0  0  0  0
   46.0520  109.7487   59.9334 C   0  0  0  0  0  0  0  0  0  0  0  0
   46.8868  109.7090   60.4825 O   0  0  0  0  0  0  0  0  0  0  0  0
   45.1673  109.8888   60.3780 N   0  0  0  0  0  0  0  0  0  0  0  0
   44.3455  109.9279   59.8373 H   0  0  0  0  0  0  0  0  0  0  0  0
   45.1173  109.9892   61.3716 C   0  0  0  0  0  0  0  0  0  0  0  0
   44.8402  110.8624   61.7726 C   0  0  0  0  0  0  0  0  0  0  0  0
   43.9286  110.9627   62.1712 O   0  0  0  0  0  0  0  0  0  0  0  0
   45.4748  111.6354   61.7750 N   0  0  0  0  0  0  0  0  0  0  0  0
   46.3723  111.5366   61.3826 H   0  0  0  0  0  0  0  0  0  0  0  0
   45.1977  112.5085   62.1759 C   0  0  0  0  0  0  0  0  0  0  0  0
   45.5571  112.7860   63.0669 C   0  0  0  0  0  0  0  0  0  0  0  0
   44.9768  113.2930   63.7042 O   0  0  0  0  0  0  0  0  0  0  0  0
   46.4968  112.5565   63.3205 N   0  0  0  0  0  0  0  0  0  0  0  0
   47.0681  112.0574   62.6930 H   0  0  0  0  0  0  0  0  0  0  0  0
   46.8562  112.8340   64.2115 C   0  0  0  0  0  0  0  0  0  0  0  0
   46.9141  112.1693   64.9563 C   0  0  0  0  0  0  0  0  0  0  0  0
   46.4367  112.3411   65.8180 O   0  0  0  0  0  0  0  0  0  0  0  0
   47.4496  111.3328   64.8394 N   0  0  0  0  0  0  0  0  0  0  0  0
   47.9602  111.0715   64.0203 C   0  0  0  0  0  0  0  0  0  0  0  0
   48.3946  110.1880   64.1959 C   0  0  0  0  0  0  0  0  0  0  0  0
   48.1524  109.9034   65.1234 C   0  0  0  0  0  0  0  0  0  0  0  0
   47.5684  110.6110   65.5211 C   0  0  0  0  0  0  0  0  0  0  0  0
   47.1726  110.5987   66.4393 C   0  0  0  0  0  0  0  0  0  0  0  0
   47.6389  111.0651   67.1911 O   0  0  0  0  0  0  0  0  0  0  0  0
   46.3104  110.1202   66.6059 O   0  0  0  0  0  0  0  0  0  0  0  0
   48.4467  111.5135   67.0350 H   0  0  0  0  0  0  0  0  0  0  0  0
   47.1576  113.7763   64.3576 C   0  0  0  0  0  0  0  0  0  0  0  0
   47.9876  114.1107   63.9112 S   0  0  0  0  0  0  0  0  0  0  0  0
   48.7064  113.2841   63.1052 H   0  0  0  0  0  0  0  0  0  0  0  0
   44.5612  113.1042   61.6859 C   0  0  0  0  0  0  0  0  0  0  0  0
   44.9057  113.7557   61.0101 C   0  0  0  0  0  0  0  0  0  0  0  0
   45.0434  113.5750   60.0363 C   0  0  0  0  0  0  0  0  0  0  0  0
   45.3958  114.4100   59.6137 N   0  0  0  0  0  0  0  0  0  0  0  0
   45.4760  115.1069   60.3265 C   0  0  0  0  0  0  0  0  0  0  0  0
   45.1731  114.7025   61.1895 N   0  0  0  0  0  0  0  0  0  0  0  0
   45.1433  115.1568   62.0624 H   0  0  0  0  0  0  0  0  0  0  0  0
   45.3445  109.2165   61.9643 C   0  0  0  0  0  0  0  0  0  0  0  0
   44.6344  108.5642   62.2296 C   0  0  0  0  0  0  0  0  0  0  0  0
   44.8892  107.6662   62.5882 C   0  0  0  0  0  0  0  0  0  0  0  0
   45.1553  106.9344   61.9607 O   0  0  0  0  0  0  0  0  0  0  0  0
   44.8780  107.5000   63.5742 N   0  0  0  0  0  0  0  0  0  0  0  0
   44.6160  108.2205   64.1919 H   0  0  0  0  0  0  0  0  0  0  0  0
   45.1288  106.6158   63.9273 H   0  0  0  0  0  0  0  0  0  0  0  0
   45.6191  110.2930   58.3471 C   0  0  0  0  0  0  0  0  0  0  0  0
   46.1358  110.9395   57.7858 C   0  0  0  0  0  0  0  0  0  0  0  0
   45.6855  111.4187   57.0324 C   0  0  0  0  0  0  0  0  0  0  0  0
   46.0341  112.3033   56.7229 C   0  0  0  0  0  0  0  0  0  0  0  0
   45.6377  112.7428   55.9168 N   0  0  0  0  0  0  0  0  0  0  0  0
   44.8778  112.2886   55.4102 H   0  0  0  0  0  0  0  0  0  0  0  0
   45.9934  113.6451   55.6012 H   0  0  0  0  0  0  0  0  0  0  0  0
   47.4996  106.3314   59.0593 C   0  0  0  0  0  0  0  0  0  0  0  0
   46.6113  105.9813   59.3568 O   0  0  0  0  0  0  0  0  0  0  0  0
   47.5510  106.9954   58.3134 N   0  0  0  0  0  0  0  0  0  0  0  0
   48.4255  107.3401   58.0205 H   0  0  0  0  0  0  0  0  0  0  0  0
   48.3364  106.0174   59.5077 C   0  0  0  0  0  0  0  0  0  0  0  0
   49.5766  105.3291   58.5136 C   0  0  0  0  0  0  0  0  0  0  0  0
   49.0577  104.4762   58.4568 O   0  0  0  0  0  0  0  0  0  0  0  0
   49.2160  106.0997   59.0391 N   0  0  0  0  0  0  0  0  0  0  0  0
   49.7268  106.9395   59.0950 H   0  0  0  0  0  0  0  0  0  0  0  0
   50.4561  105.4115   58.0450 C   0  0  0  0  0  0  0  0  0  0  0  0
   50.8152  106.5827   56.8206 C   0  0  0  0  0  0  0  0  0  0  0  0
   50.4848  105.9510   56.1194 O   0  0  0  0  0  0  0  0  0  0  0  0
   50.8009  106.3130   57.7834 N   0  0  0  0  0  0  0  0  0  0  0  0
   51.1261  106.9349   58.4738 H   0  0  0  0  0  0  0  0  0  0  0  0
   51.1599  107.4842   56.5590 C   0  0  0  0  0  0  0  0  0  0  0  0
   52.1112  107.5913   56.2701 C   0  0  0  0  0  0  0  0  0  0  0  0
   50.9047  109.1662   56.8842 C   0  0  0  0  0  0  0  0  0  0  0  0
   51.8629  109.2592   57.1550 O   0  0  0  0  0  0  0  0  0  0  0  0
   50.5532  108.2787   56.5862 N   0  0  0  0  0  0  0  0  0  0  0  0
   49.6099  108.1872   56.3197 H   0  0  0  0  0  0  0  0  0  0  0  0
   50.2981  109.9608   56.9115 C   0  0  0  0  0  0  0  0  0  0  0  0
   49.8747  110.3844   58.5367 C   0  0  0  0  0  0  0  0  0  0  0  0
   49.3593  109.5319   58.6246 O   0  0  0  0  0  0  0  0  0  0  0  0
   50.3441  110.5988   57.6802 N   0  0  0  0  0  0  0  0  0  0  0  0
   50.8515  111.4380   57.5936 H   0  0  0  0  0  0  0  0  0  0  0  0
   49.9207  111.0224   59.3054 C   0  0  0  0  0  0  0  0  0  0  0  0
   51.1233  110.7455   60.5208 C   0  0  0  0  0  0  0  0  0  0  0  0
   51.8219  111.1293   59.9170 O   0  0  0  0  0  0  0  0  0  0  0  0
   50.1727  110.6920   60.2150 N   0  0  0  0  0  0  0  0  0  0  0  0
   49.4848  110.3142   60.8094 H   0  0  0  0  0  0  0  0  0  0  0  0
   51.2101  110.9874   62.2337 N   0  0  0  0  0  0  0  0  0  0  0  0
   51.3752  110.4151   61.4304 C   0  0  0  0  0  0  0  0  0  0  0  0
   51.4670  110.6505   63.1615 H   0  0  0  0  0  0  0  0  0  0  0  0
   50.7846  111.9081   62.1251 H   0  0  0  0  0  0  0  0  0  0  0  0
   51.7923  109.5125   61.5368 C   0  0  0  0  0  0  0  0  0  0  0  0
   51.4116  108.7255   61.0514 O   0  0  0  0  0  0  0  0  0  0  0  0
   52.5901  109.3970   62.1286 C   0  0  0  0  0  0  0  0  0  0  0  0
   50.6377  108.8376   60.4774 H   0  0  0  0  0  0  0  0  0  0  0  0
   49.7148  111.9907   59.1645 C   0  0  0  0  0  0  0  0  0  0  0  0
   48.8312  112.3608   59.4513 C   0  0  0  0  0  0  0  0  0  0  0  0
   48.7143  113.3480   59.5605 C   0  0  0  0  0  0  0  0  0  0  0  0
   48.8046  113.7652   60.4648 O   0  0  0  0  0  0  0  0  0  0  0  0
   48.5070  113.9179   58.7654 N   0  0  0  0  0  0  0  0  0  0  0  0
   48.4182  113.5071   57.8751 H   0  0  0  0  0  0  0  0  0  0  0  0
   48.3919  114.8897   58.8729 H   0  0  0  0  0  0  0  0  0  0  0  0
   49.6455  110.1173   56.1702 C   0  0  0  0  0  0  0  0  0  0  0  0
   49.8269  110.8228   55.4851 C   0  0  0  0  0  0  0  0  0  0  0  0
   49.0680  111.3301   55.0769 C   0  0  0  0  0  0  0  0  0  0  0  0
   48.9156  112.2870   55.3243 O   0  0  0  0  0  0  0  0  0  0  0  0
   48.4613  110.8805   54.4211 N   0  0  0  0  0  0  0  0  0  0  0  0
   48.6112  109.9385   54.1776 H   0  0  0  0  0  0  0  0  0  0  0  0
   47.7141  111.3800   54.0192 H   0  0  0  0  0  0  0  0  0  0  0  0
   50.9910  104.5923   57.8380 C   0  0  0  0  0  0  0  0  0  0  0  0
   51.7553  104.3318   58.4279 O   0  0  0  0  0  0  0  0  0  0  0  0
   52.2741  103.5371   58.2271 H   0  0  0  0  0  0  0  0  0  0  0  0
   48.2937  105.6210   60.4249 C   0  0  0  0  0  0  0  0  0  0  0  0
   48.5998  106.1531   61.2143 C   0  0  0  0  0  0  0  0  0  0  0  0
   49.4248  105.9833   61.7534 C   0  0  0  0  0  0  0  0  0  0  0  0
   49.4696  106.6736   62.4756 N   0  0  0  0  0  0  0  0  0  0  0  0
   48.6723  107.2701   62.3827 C   0  0  0  0  0  0  0  0  0  0  0  0
   48.1348  106.9483   61.6032 N   0  0  0  0  0  0  0  0  0  0  0  0
   47.2952  107.3449   61.2761 H   0  0  0  0  0  0  0  0  0  0  0  0
 95 96  1  0  0  0
 95 97  1  0  0  0
 95 98  1  0  0  0
 96 91  1  0  0  0
 96 99  1  0  0  0
 91 92  2  0  0  0
 91 93  1  0  0  0
 93 90  1  0  0  0
 93 94  1  0  0  0
 90103  1  0  0  0
 90 86  1  0  0  0
103104  1  0  0  0
104105  1  0  0  0
105106  2  0  0  0
105107  1  0  0  0
107108  1  0  0  0
107109  1  0  0  0
 86 87  2  0  0  0
 86 88  1  0  0  0
 88 85  1  0  0  0
 88 89  1  0  0  0
 85110  1  0  0  0
 85 81  1  0  0  0
110111  1  0  0  0
111112  1  0  0  0
112113  2  0  0  0
112114  1  0  0  0
114115  1  0  0  0
114116  1  0  0  0
 81 82  2  0  0  0
 81 83  1  0  0  0
 83 79  1  0  0  0
 83 84  1  0  0  0
 79 80  1  0  0  0
 79 75  1  0  0  0
 75 76  2  0  0  0
 75 77  1  0  0  0
 77 74  1  0  0  0
 77 78  1  0  0  0
 74117  1  0  0  0
 74 70  1  0  0  0
117118  1  0  0  0
118119  1  0  0  0
 70 71  2  0  0  0
 70 72  1  0  0  0
 72 69  1  0  0  0
 72 73  1  0  0  0
 69120  1  0  0  0
 69 65  1  0  0  0
120121  1  0  0  0
121125  1  0  0  0
121122  2  0  0  0
122123  1  0  0  0
123124  2  0  0  0
124125  1  0  0  0
125126  1  0  0  0
 65 66  2  0  0  0
 65 67  1  0  0  0
 67  1  1  0  0  0
 67 68  1  0  0  0
  1  2  1  0  0  0
  1 10  1  0  0  0
  2  8  2  0  0  0
  2  3  1  0  0  0
  3  4  2  0  0  0
  4  5  1  0  0  0
  5  6  1  0  0  0
  5  7  2  0  0  0
  6  9  1  0  0  0
  7  8  1  0  0  0
 10 11  2  0  0  0
 10 12  1  0  0  0
 12 14  1  0  0  0
 12 13  1  0  0  0
 14 58  1  0  0  0
 14 15  1  0  0  0
 58 59  1  0  0  0
 59 60  1  0  0  0
 60 61  1  0  0  0
 61 62  1  0  0  0
 62 63  1  0  0  0
 62 64  1  0  0  0
 15 16  2  0  0  0
 15 17  1  0  0  0
 17 19  1  0  0  0
 17 18  1  0  0  0
 19 51  1  0  0  0
 19 20  1  0  0  0
 51 52  1  0  0  0
 52 53  1  0  0  0
 53 54  2  0  0  0
 53 55  1  0  0  0
 55 56  1  0  0  0
 55 57  1  0  0  0
 20 21  2  0  0  0
 20 22  1  0  0  0
 22 24  1  0  0  0
 22 23  1  0  0  0
 24 44  1  0  0  0
 24 25  1  0  0  0
 44 45  1  0  0  0
 45 49  1  0  0  0
 45 46  2  0  0  0
 46 47  1  0  0  0
 47 48  2  0  0  0
 48 49  1  0  0  0
 49 50  1  0  0  0
 25 26  2  0  0  0
 25 27  1  0  0  0
 27 29  1  0  0  0
 27 28  1  0  0  0
 29 41  1  0  0  0
 29 30  1  0  0  0
 41 42  1  0  0  0
 42 43  1  0  0  0
 30 31  2  0  0  0
 30 32  1  0  0  0
 32 36  1  0  0  0
 32 33  1  0  0  0
 33 34  1  0  0  0
 34 35  1  0  0  0
 35 36  1  0  0  0
 36 37  1  0  0  0
 37 38  1  0  0  0
 37 39  2  0  0  0
 38 40  1  0  0  0
 99100  1  0  0  0
 99101  1  0  0  0
100102  1  0  0  0
M  END
> <minimizedAffinity>
-4.85686

$$$$
