
 OpenBabel10172310552D

190193  0  0  1  0  0  0  0  0999 V2000
    4.3750   -7.8192    0.0000 N   0  3  0  0  0  0  0  0  0  0  0  0
    9.3748   -7.8192    0.0000 C   0  0  3  0  0  0  0  0  0  0  0  0
    9.3748  -12.8192    0.0000 C   0  0  3  0  0  3  0  0  0  0  0  0
    9.3748  -17.8191    0.0000 C   0  0  0  0  0  0  0  0  0  0  0  0
    4.3750  -12.8192    0.0000 O   0  0  0  0  0  0  0  0  0  0  0  0
   14.2022   -6.5252    0.0000 C   0  0  0  0  0  0  0  0  0  0  0  0
   19.0323   -7.8192    0.0000 N   0  0  0  0  0  0  0  0  0  0  0  0
   23.8624   -6.5252    0.0000 C   0  0  3  0  0  0  0  0  0  0  0  0
   28.6924   -7.8192    0.0000 C   0  0  0  0  0  0  0  0  0  0  0  0
   33.5225   -6.5252    0.0000 N   0  0  0  0  0  0  0  0  0  0  0  0
   38.3526   -7.8192    0.0000 C   0  0  3  0  0  0  0  0  0  0  0  0
   43.1800   -6.5252    0.0000 C   0  0  0  0  0  0  0  0  0  0  0  0
   48.0101   -7.8192    0.0000 N   0  0  0  0  0  0  0  0  0  0  0  0
   52.8401   -6.5252    0.0000 C   0  0  3  0  0  0  0  0  0  0  0  0
   57.6702   -7.8192    0.0000 C   0  0  0  0  0  0  0  0  0  0  0  0
   62.5003   -6.5252    0.0000 N   0  0  0  0  0  0  0  0  0  0  0  0
   67.3304   -7.8192    0.0000 C   0  0  3  0  0  0  0  0  0  0  0  0
   72.1578   -6.5252    0.0000 C   0  0  0  0  0  0  0  0  0  0  0  0
   76.9878   -7.8192    0.0000 N   0  0  0  0  0  0  0  0  0  0  0  0
   81.8179   -6.5252    0.0000 C   0  0  3  0  0  0  0  0  0  0  0  0
   14.2022   -1.5249    0.0000 O   0  0  0  0  0  0  0  0  0  0  0  0
   28.6924   -2.8193    0.0000 O   0  0  0  0  0  0  0  0  0  0  0  0
   43.1800   -1.5249    0.0000 O   0  0  0  0  0  0  0  0  0  0  0  0
   57.6702   -2.8193    0.0000 O   0  0  0  0  0  0  0  0  0  0  0  0
   72.1578   -1.5249    0.0000 O   0  0  0  0  0  0  0  0  0  0  0  0
   23.8624  -11.5252    0.0000 C   0  0  0  0  0  0  0  0  0  0  0  0
   26.3636  -15.8553    0.0000 C   0  0  0  0  0  0  0  0  0  0  0  0
   23.8624  -20.1855    0.0000 C   0  0  0  0  0  0  0  0  0  0  0  0
   26.3636  -24.5156    0.0000 N   0  0  0  0  0  0  0  0  0  0  0  0
   38.3526  -12.8192    0.0000 C   0  0  0  0  0  0  0  0  0  0  0  0
   40.8512  -17.1493    0.0000 C   0  0  0  0  0  0  0  0  0  0  0  0
   38.3526  -21.4795    0.0000 C   0  0  0  0  0  0  0  0  0  0  0  0
   40.8512  -25.8096    0.0000 N   0  0  0  0  0  0  0  0  0  0  0  0
   18.8626  -20.1855    0.0000 O   0  0  0  0  0  0  0  0  0  0  0  0
   33.3528  -21.4795    0.0000 O   0  0  0  0  0  0  0  0  0  0  0  0
   52.8401  -11.5252    0.0000 C   0  0  0  0  0  0  0  0  0  0  0  0
   64.8291  -12.1494    0.0000 C   0  0  0  0  0  0  0  0  0  0  0  0
   67.3304  -16.4795    0.0000 O   0  0  0  0  0  0  0  0  0  0  0  0
   86.6480   -7.8192    0.0000 C   0  0  0  0  0  0  0  0  0  0  0  0
   91.4780   -6.5252    0.0000 N   0  0  0  0  0  0  0  0  0  0  0  0
   96.3081   -7.8192    0.0000 C   0  0  3  0  0  0  0  0  0  0  0  0
  101.1355   -6.5252    0.0000 C   0  0  0  0  0  0  0  0  0  0  0  0
  105.9656   -7.8192    0.0000 N   0  0  0  0  0  0  0  0  0  0  0  0
  110.7957   -6.5252    0.0000 C   0  0  3  0  0  0  0  0  0  0  0  0
  115.6257   -7.8192    0.0000 C   0  0  0  0  0  0  0  0  0  0  0  0
  120.4558   -6.5252    0.0000 N   0  0  0  0  0  0  0  0  0  0  0  0
  125.2859   -7.8192    0.0000 C   0  0  3  0  0  0  0  0  0  0  0  0
   86.6480   -2.8193    0.0000 O   0  0  0  0  0  0  0  0  0  0  0  0
  101.1355   -1.5249    0.0000 O   0  0  0  0  0  0  0  0  0  0  0  0
  115.6257   -2.8193    0.0000 O   0  0  0  0  0  0  0  0  0  0  0  0
   81.8179  -11.5252    0.0000 C   0  0  0  0  0  0  0  0  0  0  0  0
   79.3193  -15.8553    0.0000 C   0  0  0  0  0  0  0  0  0  0  0  0
   84.3191  -15.8553    0.0000 N   0  0  0  0  0  0  0  0  0  0  0  0
   79.3193  -20.8552    0.0000 C   0  0  0  0  0  0  0  0  0  0  0  0
   84.3191  -20.8552    0.0000 N   0  3  0  0  0  0  0  0  0  0  0  0
   88.6479  -18.3551    0.0000 C   0  0  0  0  0  0  0  0  0  0  0  0
   96.3081  -12.8192    0.0000 C   0  0  0  0  0  0  0  0  0  0  0  0
   91.9767  -15.3193    0.0000 C   0  0  0  0  0  0  0  0  0  0  0  0
   91.9767  -20.3193    0.0000 C   0  0  0  0  0  0  0  0  0  0  0  0
   96.3081  -22.8190    0.0000 C   0  0  0  0  0  0  0  0  0  0  0  0
  100.6369  -20.3193    0.0000 C   0  0  0  0  0  0  0  0  0  0  0  0
  100.6369  -15.3193    0.0000 C   0  0  0  0  0  0  0  0  0  0  0  0
   96.3081  -27.8194    0.0000 O   0  0  0  0  0  0  0  0  0  0  0  0
  113.2969  -10.8554    0.0000 C   0  0  0  0  0  0  0  0  0  0  0  0
  110.7957  -15.1855    0.0000 C   0  0  0  0  0  0  0  0  0  0  0  0
  113.2969  -19.5157    0.0000 C   0  0  0  0  0  0  0  0  0  0  0  0
  110.7957  -23.8454    0.0000 C   0  0  0  0  0  0  0  0  0  0  0  0
  113.2969  -28.1756    0.0000 N   0  3  0  0  0  0  0  0  0  0  0  0
  130.1133   -6.5252    0.0000 C   0  0  0  0  0  0  0  0  0  0  0  0
  134.9434   -7.8192    0.0000 N   0  0  0  0  0  0  0  0  0  0  0  0
  139.7734   -6.5252    0.0000 C   0  0  3  0  0  0  0  0  0  0  0  0
  144.6035   -7.8192    0.0000 C   0  0  0  0  0  0  0  0  0  0  0  0
  149.4336   -6.5252    0.0000 N   0  0  0  0  0  0  0  0  0  0  0  0
  154.2636   -7.8192    0.0000 C   0  0  3  0  0  0  0  0  0  0  0  0
  159.0911   -6.5252    0.0000 C   0  0  0  0  0  0  0  0  0  0  0  0
  163.9211   -7.8192    0.0000 N   0  0  0  0  0  0  0  0  0  0  0  0
  168.7512   -6.5252    0.0000 C   0  0  3  0  0  0  0  0  0  0  0  0
  173.5813   -7.8192    0.0000 C   0  0  0  0  0  0  0  0  0  0  0  0
  130.1133   -1.5249    0.0000 O   0  0  0  0  0  0  0  0  0  0  0  0
  144.6035   -2.8193    0.0000 O   0  0  0  0  0  0  0  0  0  0  0  0
  159.0911   -1.5249    0.0000 O   0  0  0  0  0  0  0  0  0  0  0  0
  173.5813   -2.8193    0.0000 O   0  0  0  0  0  0  0  0  0  0  0  0
  122.7846  -12.1494    0.0000 C   0  0  0  0  0  0  0  0  0  0  0  0
  125.2859  -16.4795    0.0000 C   0  0  0  0  0  0  0  0  0  0  0  0
  122.7846  -20.8097    0.0000 C   0  0  0  0  0  0  0  0  0  0  0  0
  125.2859  -25.1399    0.0000 N   0  0  0  0  0  0  0  0  0  0  0  0
  117.7848  -20.8097    0.0000 O   0  0  0  0  0  0  0  0  0  0  0  0
  142.2747  -10.8554    0.0000 C   0  0  0  0  0  0  0  0  0  0  0  0
  139.7734  -15.1855    0.0000 C   0  0  0  0  0  0  0  0  0  0  0  0
  144.7733  -15.1855    0.0000 N   0  0  0  0  0  0  0  0  0  0  0  0
  139.7734  -20.1855    0.0000 C   0  0  0  0  0  0  0  0  0  0  0  0
  144.7733  -20.1855    0.0000 N   0  3  0  0  0  0  0  0  0  0  0  0
  149.1047  -17.6853    0.0000 C   0  0  0  0  0  0  0  0  0  0  0  0
  156.7622  -12.1494    0.0000 C   0  0  0  0  0  0  0  0  0  0  0  0
  154.2636  -16.4795    0.0000 S   0  0  0  0  0  0  0  0  0  0  0  0
  178.2018   -9.7326    0.0000 O   0  0  0  0  0  0  0  0  0  0  0  0
  171.2524  -10.8554    0.0000 C   0  0  0  0  0  0  0  0  0  0  0  0
  163.9211  -12.8192    0.0000 C   0  0  0  0  0  0  0  0  0  0  0  0
  168.7512  -15.1855    0.0000 C   0  0  0  0  0  0  0  0  0  0  0  0
    3.8650   -6.9359    0.0000 H   0  0  0  0  0  0  0  0  0  0  0  0
    3.8650   -8.7025    0.0000 H   0  0  0  0  0  0  0  0  0  0  0  0
    3.3550   -7.8192    0.0000 H   0  0  0  0  0  0  0  0  0  0  0  0
    8.6182   -8.5758    0.0000 H   0  0  0  0  0  0  0  0  0  0  0  0
    8.4482  -18.3541    0.0000 H   0  0  0  0  0  0  0  0  0  0  0  0
   10.3014  -18.3541    0.0000 H   0  0  0  0  0  0  0  0  0  0  0  0
    9.3748  -18.8891    0.0000 H   0  0  0  0  0  0  0  0  0  0  0  0
    3.8900  -11.9792    0.0000 H   0  0  0  0  0  0  0  0  0  0  0  0
   19.0323   -8.8037    0.0000 H   0  0  0  0  0  0  0  0  0  0  0  0
   23.8624   -7.5952    0.0000 H   0  0  0  0  0  0  0  0  0  0  0  0
   33.5225   -5.5407    0.0000 H   0  0  0  0  0  0  0  0  0  0  0  0
   38.3525   -6.7492    0.0000 H   0  0  0  0  0  0  0  0  0  0  0  0
   48.0101   -8.8037    0.0000 H   0  0  0  0  0  0  0  0  0  0  0  0
   52.8401   -7.5952    0.0000 H   0  0  0  0  0  0  0  0  0  0  0  0
   62.5003   -5.5407    0.0000 H   0  0  0  0  0  0  0  0  0  0  0  0
   67.3303   -6.7492    0.0000 H   0  0  0  0  0  0  0  0  0  0  0  0
   76.9878   -8.8037    0.0000 H   0  0  0  0  0  0  0  0  0  0  0  0
   81.8179   -7.5952    0.0000 H   0  0  0  0  0  0  0  0  0  0  0  0
   22.8289  -11.8022    0.0000 H   0  0  0  0  0  0  0  0  0  0  0  0
   23.4531  -12.5138    0.0000 H   0  0  0  0  0  0  0  0  0  0  0  0
   27.4336  -15.8553    0.0000 H   0  0  0  0  0  0  0  0  0  0  0  0
   26.8985  -16.7820    0.0000 H   0  0  0  0  0  0  0  0  0  0  0  0
   25.8715  -25.3683    0.0000 H   0  0  0  0  0  0  0  0  0  0  0  0
   27.3481  -24.5154    0.0000 H   0  0  0  0  0  0  0  0  0  0  0  0
   37.3190  -13.0960    0.0000 H   0  0  0  0  0  0  0  0  0  0  0  0
   37.9430  -13.8077    0.0000 H   0  0  0  0  0  0  0  0  0  0  0  0
   41.9212  -17.1493    0.0000 H   0  0  0  0  0  0  0  0  0  0  0  0
   41.3863  -18.0759    0.0000 H   0  0  0  0  0  0  0  0  0  0  0  0
   40.3587  -26.6621    0.0000 H   0  0  0  0  0  0  0  0  0  0  0  0
   41.8357  -25.8098    0.0000 H   0  0  0  0  0  0  0  0  0  0  0  0
   51.9135  -12.0602    0.0000 H   0  0  0  0  0  0  0  0  0  0  0  0
   53.7667  -12.0602    0.0000 H   0  0  0  0  0  0  0  0  0  0  0  0
   52.8401  -12.5952    0.0000 H   0  0  0  0  0  0  0  0  0  0  0  0
   63.7591  -12.1494    0.0000 H   0  0  0  0  0  0  0  0  0  0  0  0
   64.2942  -13.0761    0.0000 H   0  0  0  0  0  0  0  0  0  0  0  0
   66.8456  -17.3197    0.0000 H   0  0  0  0  0  0  0  0  0  0  0  0
   91.4780   -5.5407    0.0000 H   0  0  0  0  0  0  0  0  0  0  0  0
   96.3080   -6.7492    0.0000 H   0  0  0  0  0  0  0  0  0  0  0  0
  105.9656   -8.8037    0.0000 H   0  0  0  0  0  0  0  0  0  0  0  0
  110.7957   -7.5952    0.0000 H   0  0  0  0  0  0  0  0  0  0  0  0
  120.4558   -5.5407    0.0000 H   0  0  0  0  0  0  0  0  0  0  0  0
  125.2858   -6.7492    0.0000 H   0  0  0  0  0  0  0  0  0  0  0  0
   82.8515  -11.8020    0.0000 H   0  0  0  0  0  0  0  0  0  0  0  0
   82.2275  -12.5137    0.0000 H   0  0  0  0  0  0  0  0  0  0  0  0
   84.5740  -14.9044    0.0000 H   0  0  0  0  0  0  0  0  0  0  0  0
   78.5896  -21.5849    0.0000 H   0  0  0  0  0  0  0  0  0  0  0  0
   84.5740  -21.8061    0.0000 H   0  0  0  0  0  0  0  0  0  0  0  0
   89.6799  -18.3551    0.0000 H   0  0  0  0  0  0  0  0  0  0  0  0
   91.0830  -14.8033    0.0000 H   0  0  0  0  0  0  0  0  0  0  0  0
   91.0830  -20.8354    0.0000 H   0  0  0  0  0  0  0  0  0  0  0  0
  101.5307  -20.8353    0.0000 H   0  0  0  0  0  0  0  0  0  0  0  0
  101.5307  -14.8034    0.0000 H   0  0  0  0  0  0  0  0  0  0  0  0
   95.4966  -28.2879    0.0000 H   0  0  0  0  0  0  0  0  0  0  0  0
  114.3669  -10.8554    0.0000 H   0  0  0  0  0  0  0  0  0  0  0  0
  113.8318  -11.7821    0.0000 H   0  0  0  0  0  0  0  0  0  0  0  0
  109.7257  -15.1855    0.0000 H   0  0  0  0  0  0  0  0  0  0  0  0
  110.2608  -16.1122    0.0000 H   0  0  0  0  0  0  0  0  0  0  0  0
  114.3669  -19.5157    0.0000 H   0  0  0  0  0  0  0  0  0  0  0  0
  113.8318  -20.4424    0.0000 H   0  0  0  0  0  0  0  0  0  0  0  0
  109.7257  -23.8454    0.0000 H   0  0  0  0  0  0  0  0  0  0  0  0
  110.2608  -24.7721    0.0000 H   0  0  0  0  0  0  0  0  0  0  0  0
  112.7871  -29.0590    0.0000 H   0  0  0  0  0  0  0  0  0  0  0  0
  114.3169  -28.1754    0.0000 H   0  0  0  0  0  0  0  0  0  0  0  0
  113.8071  -29.0588    0.0000 H   0  0  0  0  0  0  0  0  0  0  0  0
  134.9434   -8.8037    0.0000 H   0  0  0  0  0  0  0  0  0  0  0  0
  139.7734   -7.5952    0.0000 H   0  0  0  0  0  0  0  0  0  0  0  0
  149.4336   -5.5407    0.0000 H   0  0  0  0  0  0  0  0  0  0  0  0
  154.2635   -6.7492    0.0000 H   0  0  0  0  0  0  0  0  0  0  0  0
  168.7512   -7.5952    0.0000 H   0  0  0  0  0  0  0  0  0  0  0  0
  121.7146  -12.1494    0.0000 H   0  0  0  0  0  0  0  0  0  0  0  0
  122.2497  -13.0761    0.0000 H   0  0  0  0  0  0  0  0  0  0  0  0
  126.3559  -16.4795    0.0000 H   0  0  0  0  0  0  0  0  0  0  0  0
  125.8208  -17.4062    0.0000 H   0  0  0  0  0  0  0  0  0  0  0  0
  124.7938  -25.9926    0.0000 H   0  0  0  0  0  0  0  0  0  0  0  0
  126.2704  -25.1397    0.0000 H   0  0  0  0  0  0  0  0  0  0  0  0
  143.3447  -10.8554    0.0000 H   0  0  0  0  0  0  0  0  0  0  0  0
  142.8096  -11.7821    0.0000 H   0  0  0  0  0  0  0  0  0  0  0  0
  145.0280  -14.2345    0.0000 H   0  0  0  0  0  0  0  0  0  0  0  0
  139.0437  -20.9152    0.0000 H   0  0  0  0  0  0  0  0  0  0  0  0
  145.0281  -21.1365    0.0000 H   0  0  0  0  0  0  0  0  0  0  0  0
  150.1367  -17.6853    0.0000 H   0  0  0  0  0  0  0  0  0  0  0  0
  157.8322  -12.1494    0.0000 H   0  0  0  0  0  0  0  0  0  0  0  0
  157.2973  -13.0760    0.0000 H   0  0  0  0  0  0  0  0  0  0  0  0
  152.9036  -16.4798    0.0000 H   0  0  0  0  0  0  0  0  0  0  0  0
  178.3242  -10.6616    0.0000 H   0  0  0  0  0  0  0  0  0  0  0  0
  172.3224  -10.8554    0.0000 H   0  0  0  0  0  0  0  0  0  0  0  0
  171.7873  -11.7821    0.0000 H   0  0  0  0  0  0  0  0  0  0  0  0
  163.0132  -13.3854    0.0000 H   0  0  0  0  0  0  0  0  0  0  0  0
  163.9757  -13.8878    0.0000 H   0  0  0  0  0  0  0  0  0  0  0  0
  169.0630  -16.2091    0.0000 H   0  0  0  0  0  0  0  0  0  0  0  0
  167.9366  -15.8793    0.0000 H   0  0  0  0  0  0  0  0  0  0  0  0
  1  2  1  0  0  0  0
  1100  1  0  0  0  0
  1101  1  0  0  0  0
  1102  1  0  0  0  0
  2  3  1  0  0  0  0
  2  6  1  0  0  0  0
  2103  1  0  0  0  0
  3  4  1  0  0  0  0
  3  5  1  0  0  0  0
  4104  1  0  0  0  0
  4105  1  0  0  0  0
  4106  1  0  0  0  0
  5107  1  0  0  0  0
  6  7  1  0  0  0  0
  6 21  2  0  0  0  0
  7  8  1  0  0  0  0
  7108  1  0  0  0  0
  8  9  1  0  0  0  0
  8 26  1  0  0  0  0
  8109  1  0  0  0  0
  9 10  1  0  0  0  0
  9 22  2  0  0  0  0
 10 11  1  0  0  0  0
 10110  1  0  0  0  0
 11 12  1  0  0  0  0
 11 30  1  0  0  0  0
 11111  1  0  0  0  0
 12 13  1  0  0  0  0
 12 23  2  0  0  0  0
 13 14  1  0  0  0  0
 13112  1  0  0  0  0
 14 15  1  0  0  0  0
 14 36  1  0  0  0  0
 14113  1  0  0  0  0
 15 16  1  0  0  0  0
 15 24  2  0  0  0  0
 16 17  1  0  0  0  0
 16114  1  0  0  0  0
 17 18  1  0  0  0  0
 17 37  1  0  0  0  0
 17115  1  0  0  0  0
 18 19  1  0  0  0  0
 18 25  2  0  0  0  0
 19 20  1  0  0  0  0
 19116  1  0  0  0  0
 20 39  1  0  0  0  0
 20 51  1  0  0  0  0
 20117  1  0  0  0  0
 26 27  1  0  0  0  0
 26118  1  0  0  0  0
 26119  1  0  0  0  0
 27 28  1  0  0  0  0
 27120  1  0  0  0  0
 27121  1  0  0  0  0
 28 29  1  0  0  0  0
 28 34  2  0  0  0  0
 29122  1  0  0  0  0
 29123  1  0  0  0  0
 30 31  1  0  0  0  0
 30124  1  0  0  0  0
 30125  1  0  0  0  0
 31 32  1  0  0  0  0
 31126  1  0  0  0  0
 31127  1  0  0  0  0
 32 33  1  0  0  0  0
 32 35  2  0  0  0  0
 33128  1  0  0  0  0
 33129  1  0  0  0  0
 36130  1  0  0  0  0
 36131  1  0  0  0  0
 36132  1  0  0  0  0
 37 38  1  0  0  0  0
 37133  1  0  0  0  0
 37134  1  0  0  0  0
 38135  1  0  0  0  0
 39 40  1  0  0  0  0
 39 48  2  0  0  0  0
 40 41  1  0  0  0  0
 40136  1  0  0  0  0
 41 42  1  0  0  0  0
 41 57  1  0  0  0  0
 41137  1  0  0  0  0
 42 43  1  0  0  0  0
 42 49  2  0  0  0  0
 43 44  1  0  0  0  0
 43138  1  0  0  0  0
 44 45  1  0  0  0  0
 44 64  1  0  0  0  0
 44139  1  0  0  0  0
 45 46  1  0  0  0  0
 45 50  2  0  0  0  0
 46 47  1  0  0  0  0
 46140  1  0  0  0  0
 47 69  1  0  0  0  0
 47 83  1  0  0  0  0
 47141  1  0  0  0  0
 51 52  1  0  0  0  0
 51142  1  0  0  0  0
 51143  1  0  0  0  0
 52 53  1  0  0  0  0
 52 54  2  0  0  0  0
 53 56  1  0  0  0  0
 53144  1  0  0  0  0
 54 55  1  0  0  0  0
 54145  1  0  0  0  0
 55 56  2  0  0  0  0
 55146  1  0  0  0  0
 56147  1  0  0  0  0
 57 58  2  0  0  0  0
 58 59  1  0  0  0  0
 58148  1  0  0  0  0
 59 60  2  0  0  0  0
 59149  1  0  0  0  0
 60 61  1  0  0  0  0
 60 63  1  0  0  0  0
 61 62  2  0  0  0  0
 61150  1  0  0  0  0
 62 57  1  0  0  0  0
 62151  1  0  0  0  0
 63152  1  0  0  0  0
 64 65  1  0  0  0  0
 64153  1  0  0  0  0
 64154  1  0  0  0  0
 65 66  1  0  0  0  0
 65155  1  0  0  0  0
 65156  1  0  0  0  0
 66 67  1  0  0  0  0
 66157  1  0  0  0  0
 66158  1  0  0  0  0
 67 68  1  0  0  0  0
 67159  1  0  0  0  0
 67160  1  0  0  0  0
 68161  1  0  0  0  0
 68162  1  0  0  0  0
 68163  1  0  0  0  0
 69 70  1  0  0  0  0
 69 79  2  0  0  0  0
 70 71  1  0  0  0  0
 70164  1  0  0  0  0
 71 72  1  0  0  0  0
 71 88  1  0  0  0  0
 71165  1  0  0  0  0
 72 73  1  0  0  0  0
 72 80  2  0  0  0  0
 73 74  1  0  0  0  0
 73166  1  0  0  0  0
 74 75  1  0  0  0  0
 74 94  1  0  0  0  0
 74167  1  0  0  0  0
 75 76  1  0  0  0  0
 75 81  2  0  0  0  0
 76 77  1  0  0  0  0
 76 98  1  0  0  0  0
 77 78  1  0  0  0  0
 77 97  1  0  0  0  0
 77168  1  0  0  0  0
 78 82  2  0  0  0  0
 78 96  1  0  0  0  0
 83 84  1  0  0  0  0
 83169  1  0  0  0  0
 83170  1  0  0  0  0
 84 85  1  0  0  0  0
 84171  1  0  0  0  0
 84172  1  0  0  0  0
 85 86  1  0  0  0  0
 85 87  2  0  0  0  0
 86173  1  0  0  0  0
 86174  1  0  0  0  0
 88 89  1  0  0  0  0
 88175  1  0  0  0  0
 88176  1  0  0  0  0
 89 90  1  0  0  0  0
 89 91  2  0  0  0  0
 90 93  1  0  0  0  0
 90177  1  0  0  0  0
 91 92  1  0  0  0  0
 91178  1  0  0  0  0
 92 93  2  0  0  0  0
 92179  1  0  0  0  0
 93180  1  0  0  0  0
 94 95  1  0  0  0  0
 94181  1  0  0  0  0
 94182  1  0  0  0  0
 95183  1  0  0  0  0
 96184  1  0  0  0  0
 97 99  1  0  0  0  0
 97185  1  0  0  0  0
 97186  1  0  0  0  0
 98 99  1  0  0  0  0
 98187  1  0  0  0  0
 98188  1  0  0  0  0
 99189  1  0  0  0  0
 99190  1  0  0  0  0
M  CHG  4   1   1  55   1  68   1  92   1
M  END
>  <mcule ID>
S-871250796

$$$$
