
     RDKit          3D

  0  0  0  0  0  0  0  0  0  0999 V3000
M  V30 BEGIN CTAB
M  V30 COUNTS 187 190 0 0 0
M  V30 BEGIN ATOM
M  V30 1 N -2.79617 0.057772 -6.29306 0
M  V30 2 C -2.18852 0.310998 -4.97969 0
M  V30 3 C -1.35604 1.57483 -5.02647 0
M  V30 4 O -0.794063 1.92691 -6.10012 0
M  V30 5 N -1.275 2.42442 -3.87721 0
M  V30 6 C -1.66972 3.832 -3.9664 0
M  V30 7 C -0.434975 4.74993 -3.97065 0
M  V30 8 C 0.361949 4.73298 -2.65397 0
M  V30 9 C 1.48503 5.73926 -2.65245 0
M  V30 10 O 1.80054 6.36676 -3.69703 0
M  V30 11 N 2.19551 5.99964 -1.4434 0
M  V30 12 C -2.655 4.22834 -2.87934 0
M  V30 13 O -3.37945 5.24525 -3.06774 0
M  V30 14 N -2.6855 3.58799 -1.59842 0
M  V30 15 C -3.22934 2.2386 -1.41408 0
M  V30 16 C -4.77703 2.27486 -1.23635 0
M  V30 17 C -5.35491 1.85044 0.129998 0
M  V30 18 C -5.21339 2.84107 1.26291 0
M  V30 19 O -5.46774 2.45135 2.4302 0
M  V30 20 N -4.8484 4.21063 1.06213 0
M  V30 21 C -2.47247 1.52856 -0.318769 0
M  V30 22 O -2.09143 2.17785 0.692701 0
M  V30 23 N -2.18918 0.122686 -0.426257 0
M  V30 24 C -1.3068 -0.585092 0.517678 0
M  V30 25 C -1.92855 -0.59475 1.91366 0
M  V30 26 C -1.02496 -2.00389 0.0832622 0
M  V30 27 O -1.53877 -2.47193 -0.970227 0
M  V30 28 N -0.177567 -2.83809 0.890378 0
M  V30 29 C -0.246711 -4.30424 0.805623 0
M  V30 30 C -1.63447 -4.80952 1.25204 0
M  V30 31 O -1.86238 -4.51708 2.60802 0
M  V30 32 C 0.822407 -4.98425 1.63457 0
M  V30 33 O 1.43273 -4.33814 2.53537 0
M  V30 34 N 1.09544 -6.38797 1.48504 0
M  V30 35 C 1.1222 -7.05582 0.181079 0
M  V30 36 C 0.980444 -8.58067 0.341432 0
M  V30 37 C -0.412281 -8.9384 0.777314 0
M  V30 38 C -1.37652 -9.55184 -0.00111766 0
M  V30 39 N -2.51829 -9.65173 0.710616 0
M  V30 40 C -2.21724 -9.09632 1.90744 0
M  V30 41 N -0.941726 -8.66265 1.97843 0
M  V30 42 C 2.40145 -6.68126 -0.508408 0
M  V30 43 O 3.50769 -7.04825 -0.0299076 0
M  V30 44 N 2.36531 -5.74146 -1.58542 0
M  V30 45 C 3.15193 -4.50613 -1.51481 0
M  V30 46 C 4.32062 -4.56951 -2.47073 0
M  V30 47 C 4.11573 -4.68525 -3.85747 0
M  V30 48 C 5.20312 -4.6932 -4.73428 0
M  V30 49 C 6.51005 -4.6061 -4.23836 0
M  V30 50 O 7.58873 -4.61199 -5.1219 0
M  V30 51 C 6.72359 -4.50708 -2.8583 0
M  V30 52 C 5.63369 -4.47956 -1.98196 0
M  V30 53 C 2.29438 -3.30105 -1.80044 0
M  V30 54 O 1.4193 -3.33893 -2.705 0
M  V30 55 N 2.50441 -2.08692 -1.06661 0
M  V30 56 C 2.88867 -0.803054 -1.67602 0
M  V30 57 C 2.85689 -0.824098 -3.22552 0
M  V30 58 C 3.5794 0.383986 -3.84611 0
M  V30 59 C 3.35585 0.503104 -5.36452 0
M  V30 60 C 3.73651 -0.751243 -6.17874 0
M  V30 61 N 5.14797 -1.11344 -6.02822 0
M  V30 62 C 2.03154 0.295969 -1.09389 0
M  V30 63 O 1.09583 0.807518 -1.77316 0
M  V30 64 N 2.29424 0.767211 0.235136 0
M  V30 65 C 2.0485 2.16109 0.622312 0
M  V30 66 C 3.36347 2.96713 0.562735 0
M  V30 67 C 3.99299 2.96013 -0.840777 0
M  V30 68 C 5.22354 3.82302 -0.889526 0
M  V30 69 O 5.13419 5.05723 -0.652211 0
M  V30 70 N 6.49415 3.25467 -1.21294 0
M  V30 71 C 1.47813 2.21131 2.0193 0
M  V30 72 O 2.01971 1.53598 2.93415 0
M  V30 73 N 0.365935 3.07404 2.32076 0
M  V30 74 C -0.0555817 3.34594 3.70517 0
M  V30 75 C 0.877312 4.40193 4.33655 0
M  V30 76 C 0.920222 5.68444 3.54617 0
M  V30 77 C 1.97133 6.14356 2.78569 0
M  V30 78 N 1.64839 7.34193 2.2621 0
M  V30 79 C 0.405832 7.58778 2.72996 0
M  V30 80 N -0.0645564 6.5996 3.51254 0
M  V30 81 C -1.50306 3.78852 3.77869 0
M  V30 82 O -2.04848 4.29072 2.7584 0
M  V30 83 N -2.23915 3.78689 5.01698 0
M  V30 84 C -2.45144 2.62401 5.89826 0
M  V30 85 C -1.18244 2.30423 6.71445 0
M  V30 86 S -1.5627 1.95666 8.46517 0
M  V30 87 C -2.97611 1.43186 5.13006 0
M  V30 88 O -3.2893 1.55322 3.91985 0
M  V30 89 N -3.24837 0.186686 5.78747 0
M  V30 90 C -2.28685 -0.900606 5.84394 0
M  V30 91 C -3.09153 -2.14161 6.20137 0
M  V30 92 C -4.40501 -1.62468 6.78435 0
M  V30 93 C -4.58158 -0.214995 6.21732 0
M  V30 94 C -5.5462 -0.21058 5.06326 0
M  V30 95 O -6.74957 0.470773 5.17657 0
M  V30 96 O -5.27866 -0.848421 4.00966 0
M  V30 97 C -1.36152 -0.901388 -4.49717 0
M  V30 98 O -2.24353 -1.94849 -4.16447 0
M  V30 99 C -0.364646 -1.39442 -5.55556 0
M  V30 100 H -3.46526 -0.741904 -6.1974 0
M  V30 101 H -3.37888 0.884779 -6.55458 0
M  V30 102 H -3.00856 0.473911 -4.24683 0
M  V30 103 H -0.890208 2.03037 -2.9923 0
M  V30 104 H -2.19624 3.99358 -4.9367 0
M  V30 105 H -0.772504 5.78834 -4.18323 0
M  V30 106 H 0.233041 4.43885 -4.80298 0
M  V30 107 H 0.790117 3.72087 -2.4728 0
M  V30 108 H -0.310582 4.98488 -1.80505 0
M  V30 109 H 2.96121 6.70622 -1.42465 0
M  V30 110 H 1.92489 5.52205 -0.552202 0
M  V30 111 H -2.72212 4.2256 -0.777518 0
M  V30 112 H -3.05129 1.66086 -2.33431 0
M  V30 113 H -5.20835 1.56521 -1.97861 0
M  V30 114 H -5.18744 3.25745 -1.54607 0
M  V30 115 H -6.44139 1.66428 0.00382506 0
M  V30 116 H -4.91434 0.884207 0.443702 0
M  V30 117 H -4.79981 4.6482 0.119143 0
M  V30 118 H -4.73444 4.84328 1.8892 0
M  V30 119 H -2.60583 -0.377806 -1.23973 0
M  V30 120 H -0.333485 -0.0534909 0.568483 0
M  V30 121 H -2.99716 -0.894605 1.87348 0
M  V30 122 H -1.83399 0.409075 2.36542 0
M  V30 123 H -1.38471 -1.2831 2.59417 0
M  V30 124 H 0.457505 -2.37107 1.57301 0
M  V30 125 H -0.0898246 -4.5684 -0.261798 0
M  V30 126 H -1.68313 -5.91128 1.11131 0
M  V30 127 H -2.43542 -4.37838 0.607503 0
M  V30 128 H -2.25175 -3.60104 2.63734 0
M  V30 129 H 1.59665 -6.84745 2.27574 0
M  V30 130 H 0.272161 -6.71335 -0.439421 0
M  V30 131 H 1.71122 -8.96863 1.0877 0
M  V30 132 H 1.18915 -9.06919 -0.636624 0
M  V30 133 H -1.26934 -9.88854 -1.02191 0
M  V30 134 H -2.92532 -9.00221 2.71951 0
M  V30 135 H -0.48767 -8.1822 2.78494 0
M  V30 136 H 1.64398 -5.85989 -2.33456 0
M  V30 137 H 3.53999 -4.38777 -0.478961 0
M  V30 138 H 3.11067 -4.75462 -4.26263 0
M  V30 139 H 5.03413 -4.78103 -5.80193 0
M  V30 140 H 8.54401 -4.59497 -4.78418 0
M  V30 141 H 7.72946 -4.44427 -2.45989 0
M  V30 142 H 5.82293 -4.39988 -0.916458 0
M  V30 143 H 2.66238 -2.18104 -0.0367532 0
M  V30 144 H 3.94195 -0.598312 -1.37772 0
M  V30 145 H 3.38366 -1.7368 -3.57219 0
M  V30 146 H 1.81049 -0.866416 -3.58651 0
M  V30 147 H 3.21231 1.32169 -3.38141 0
M  V30 148 H 4.66592 0.315864 -3.63318 0
M  V30 149 H 3.93828 1.36959 -5.74078 0
M  V30 150 H 2.28542 0.734491 -5.54978 0
M  V30 151 H 3.5475 -0.542591 -7.25176 0
M  V30 152 H 3.0929 -1.61246 -5.90076 0
M  V30 153 H 5.301 -1.48425 -5.06025 0
M  V30 154 H 5.73419 -0.260975 -6.14108 0
M  V30 155 H 2.92071 0.192778 0.844291 0
M  V30 156 H 1.31924 2.62774 -0.0731301 0
M  V30 157 H 4.08867 2.55101 1.29243 0
M  V30 158 H 3.14635 4.01413 0.853171 0
M  V30 159 H 4.27924 1.92177 -1.10473 0
M  V30 160 H 3.26255 3.32184 -1.59369 0
M  V30 161 H 7.35466 3.84655 -1.20339 0
M  V30 162 H 6.58484 2.24842 -1.47392 0
M  V30 163 H -0.000959965 3.67197 1.54255 0
M  V30 164 H 0.0290762 2.40217 4.27412 0
M  V30 165 H 0.560148 4.63675 5.37179 0
M  V30 166 H 1.90283 3.97638 4.39701 0
M  V30 167 H 2.91766 5.64399 2.62967 0
M  V30 168 H -0.143844 8.49399 2.51532 0
M  V30 169 H -0.976376 6.57536 4.02088 0
M  V30 170 H -2.86894 4.60875 5.17675 0
M  V30 171 H -3.257 2.904 6.61224 0
M  V30 172 H -0.61914 1.45305 6.27981 0
M  V30 173 H -0.509368 3.18295 6.72785 0
M  V30 174 H -2.42968 0.886009 8.2016 0
M  V30 175 H -1.52921 -0.704654 6.62768 0
M  V30 176 H -1.7843 -1.02862 4.86532 0
M  V30 177 H -3.30238 -2.7311 5.28085 0
M  V30 178 H -2.55183 -2.78292 6.93133 0
M  V30 179 H -4.31545 -1.56803 7.89193 0
M  V30 180 H -5.25103 -2.30386 6.53632 0
M  V30 181 H -4.93998 0.471574 7.01381 0
M  V30 182 H -7.41922 0.473644 4.41686 0
M  V30 183 H -0.797606 -0.599784 -3.58058 0
M  V30 184 H -1.72507 -2.60151 -3.62868 0
M  V30 185 H -0.900495 -1.81928 -6.43043 0
M  V30 186 H 0.290919 -0.567502 -5.89729 0
M  V30 187 H 0.279331 -2.18841 -5.12705 0
M  V30 END ATOM
M  V30 BEGIN BOND
M  V30 1 1 1 2
M  V30 2 1 2 3
M  V30 3 2 3 4
M  V30 4 1 3 5
M  V30 5 1 5 6
M  V30 6 1 6 7
M  V30 7 1 7 8
M  V30 8 1 8 9
M  V30 9 2 9 10
M  V30 10 1 9 11
M  V30 11 1 6 12
M  V30 12 2 12 13
M  V30 13 1 12 14
M  V30 14 1 14 15
M  V30 15 1 15 16
M  V30 16 1 16 17
M  V30 17 1 17 18
M  V30 18 2 18 19
M  V30 19 1 18 20
M  V30 20 1 15 21
M  V30 21 2 21 22
M  V30 22 1 21 23
M  V30 23 1 23 24
M  V30 24 1 24 25
M  V30 25 1 24 26
M  V30 26 2 26 27
M  V30 27 1 26 28
M  V30 28 1 28 29
M  V30 29 1 29 30
M  V30 30 1 30 31
M  V30 31 1 29 32
M  V30 32 2 32 33
M  V30 33 1 32 34
M  V30 34 1 34 35
M  V30 35 1 35 36
M  V30 36 1 36 37
M  V30 37 2 37 38
M  V30 38 1 38 39
M  V30 39 2 39 40
M  V30 40 1 40 41
M  V30 41 1 35 42
M  V30 42 2 42 43
M  V30 43 1 42 44
M  V30 44 1 44 45
M  V30 45 1 45 46
M  V30 46 2 46 47
M  V30 47 1 47 48
M  V30 48 2 48 49
M  V30 49 1 49 50
M  V30 50 1 49 51
M  V30 51 2 51 52
M  V30 52 1 45 53
M  V30 53 2 53 54
M  V30 54 1 53 55
M  V30 55 1 55 56
M  V30 56 1 56 57
M  V30 57 1 57 58
M  V30 58 1 58 59
M  V30 59 1 59 60
M  V30 60 1 60 61
M  V30 61 1 56 62
M  V30 62 2 62 63
M  V30 63 1 62 64
M  V30 64 1 64 65
M  V30 65 1 65 66
M  V30 66 1 66 67
M  V30 67 1 67 68
M  V30 68 2 68 69
M  V30 69 1 68 70
M  V30 70 1 65 71
M  V30 71 2 71 72
M  V30 72 1 71 73
M  V30 73 1 73 74
M  V30 74 1 74 75
M  V30 75 1 75 76
M  V30 76 2 76 77
M  V30 77 1 77 78
M  V30 78 2 78 79
M  V30 79 1 79 80
M  V30 80 1 74 81
M  V30 81 2 81 82
M  V30 82 1 81 83
M  V30 83 1 83 84
M  V30 84 1 84 85
M  V30 85 1 85 86
M  V30 86 1 84 87
M  V30 87 2 87 88
M  V30 88 1 87 89
M  V30 89 1 89 90
M  V30 90 1 90 91
M  V30 91 1 91 92
M  V30 92 1 92 93
M  V30 93 1 93 94
M  V30 94 1 94 95
M  V30 95 2 94 96
M  V30 96 1 2 97
M  V30 97 1 97 98
M  V30 98 1 97 99
M  V30 99 1 41 37
M  V30 100 1 52 46
M  V30 101 1 80 76
M  V30 102 1 93 89
M  V30 103 1 1 100
M  V30 104 1 1 101
M  V30 105 1 2 102
M  V30 106 1 5 103
M  V30 107 1 6 104
M  V30 108 1 7 105
M  V30 109 1 7 106
M  V30 110 1 8 107
M  V30 111 1 8 108
M  V30 112 1 11 109
M  V30 113 1 11 110
M  V30 114 1 14 111
M  V30 115 1 15 112
M  V30 116 1 16 113
M  V30 117 1 16 114
M  V30 118 1 17 115
M  V30 119 1 17 116
M  V30 120 1 20 117
M  V30 121 1 20 118
M  V30 122 1 23 119
M  V30 123 1 24 120
M  V30 124 1 25 121
M  V30 125 1 25 122
M  V30 126 1 25 123
M  V30 127 1 28 124
M  V30 128 1 29 125
M  V30 129 1 30 126
M  V30 130 1 30 127
M  V30 131 1 31 128
M  V30 132 1 34 129
M  V30 133 1 35 130
M  V30 134 1 36 131
M  V30 135 1 36 132
M  V30 136 1 38 133
M  V30 137 1 40 134
M  V30 138 1 41 135
M  V30 139 1 44 136
M  V30 140 1 45 137
M  V30 141 1 47 138
M  V30 142 1 48 139
M  V30 143 1 50 140
M  V30 144 1 51 141
M  V30 145 1 52 142
M  V30 146 1 55 143
M  V30 147 1 56 144
M  V30 148 1 57 145
M  V30 149 1 57 146
M  V30 150 1 58 147
M  V30 151 1 58 148
M  V30 152 1 59 149
M  V30 153 1 59 150
M  V30 154 1 60 151
M  V30 155 1 60 152
M  V30 156 1 61 153
M  V30 157 1 61 154
M  V30 158 1 64 155
M  V30 159 1 65 156
M  V30 160 1 66 157
M  V30 161 1 66 158
M  V30 162 1 67 159
M  V30 163 1 67 160
M  V30 164 1 70 161
M  V30 165 1 70 162
M  V30 166 1 73 163
M  V30 167 1 74 164
M  V30 168 1 75 165
M  V30 169 1 75 166
M  V30 170 1 77 167
M  V30 171 1 79 168
M  V30 172 1 80 169
M  V30 173 1 83 170
M  V30 174 1 84 171
M  V30 175 1 85 172
M  V30 176 1 85 173
M  V30 177 1 86 174
M  V30 178 1 90 175
M  V30 179 1 90 176
M  V30 180 1 91 177
M  V30 181 1 91 178
M  V30 182 1 92 179
M  V30 183 1 92 180
M  V30 184 1 93 181
M  V30 185 1 95 182
M  V30 186 1 97 183
M  V30 187 1 98 184
M  V30 188 1 99 185
M  V30 189 1 99 186
M  V30 190 1 99 187
M  V30 END BOND
M  V30 END CTAB
M  END
$$$$
