
  mcule   13032309562D

 99102  0  0  1  0  0  0  0  0999 V2000
    4.3750   -7.8192    0.0000 N   0  0  0  0  0  0  0  0  0  0  0  0
    9.3748   -7.8192    0.0000 C   0  0  0  0  0  0  0  0  0  0  0  0
    9.3748  -12.8192    0.0000 C   0  0  0  0  0  0  0  0  0  0  0  0
    9.3748  -17.8191    0.0000 C   0  0  0  0  0  0  0  0  0  0  0  0
    4.3750  -12.8192    0.0000 O   0  0  0  0  0  0  0  0  0  0  0  0
   14.2022   -6.5252    0.0000 C   0  0  0  0  0  0  0  0  0  0  0  0
   19.0323   -7.8192    0.0000 N   0  0  0  0  0  0  0  0  0  0  0  0
   23.8624   -6.5252    0.0000 C   0  0  0  0  0  0  0  0  0  0  0  0
   28.6924   -7.8192    0.0000 C   0  0  0  0  0  0  0  0  0  0  0  0
   33.5225   -6.5252    0.0000 N   0  0  0  0  0  0  0  0  0  0  0  0
   38.3526   -7.8192    0.0000 C   0  0  0  0  0  0  0  0  0  0  0  0
   43.1800   -6.5252    0.0000 C   0  0  0  0  0  0  0  0  0  0  0  0
   48.0101   -7.8192    0.0000 N   0  0  0  0  0  0  0  0  0  0  0  0
   52.8401   -6.5252    0.0000 C   0  0  0  0  0  0  0  0  0  0  0  0
   57.6702   -7.8192    0.0000 C   0  0  0  0  0  0  0  0  0  0  0  0
   62.5003   -6.5252    0.0000 N   0  0  0  0  0  0  0  0  0  0  0  0
   67.3304   -7.8192    0.0000 C   0  0  0  0  0  0  0  0  0  0  0  0
   72.1578   -6.5252    0.0000 C   0  0  0  0  0  0  0  0  0  0  0  0
   76.9878   -7.8192    0.0000 N   0  0  0  0  0  0  0  0  0  0  0  0
   81.8179   -6.5252    0.0000 C   0  0  0  0  0  0  0  0  0  0  0  0
   14.2022   -1.5249    0.0000 O   0  0  0  0  0  0  0  0  0  0  0  0
   28.6924   -2.8193    0.0000 O   0  0  0  0  0  0  0  0  0  0  0  0
   43.1800   -1.5249    0.0000 O   0  0  0  0  0  0  0  0  0  0  0  0
   57.6702   -2.8193    0.0000 O   0  0  0  0  0  0  0  0  0  0  0  0
   72.1578   -1.5249    0.0000 O   0  0  0  0  0  0  0  0  0  0  0  0
   23.8624  -11.5252    0.0000 C   0  0  0  0  0  0  0  0  0  0  0  0
   26.3636  -15.8553    0.0000 C   0  0  0  0  0  0  0  0  0  0  0  0
   23.8624  -20.1855    0.0000 C   0  0  0  0  0  0  0  0  0  0  0  0
   26.3636  -24.5156    0.0000 N   0  0  0  0  0  0  0  0  0  0  0  0
   38.3526  -12.8192    0.0000 C   0  0  0  0  0  0  0  0  0  0  0  0
   40.8512  -17.1493    0.0000 C   0  0  0  0  0  0  0  0  0  0  0  0
   38.3526  -21.4795    0.0000 C   0  0  0  0  0  0  0  0  0  0  0  0
   40.8512  -25.8096    0.0000 N   0  0  0  0  0  0  0  0  0  0  0  0
   18.8626  -20.1855    0.0000 O   0  0  0  0  0  0  0  0  0  0  0  0
   33.3528  -21.4795    0.0000 O   0  0  0  0  0  0  0  0  0  0  0  0
   52.8401  -11.5252    0.0000 C   0  0  0  0  0  0  0  0  0  0  0  0
   64.8291  -12.1494    0.0000 C   0  0  0  0  0  0  0  0  0  0  0  0
   67.3304  -16.4795    0.0000 O   0  0  0  0  0  0  0  0  0  0  0  0
   86.6480   -7.8192    0.0000 C   0  0  0  0  0  0  0  0  0  0  0  0
   91.4780   -6.5252    0.0000 N   0  0  0  0  0  0  0  0  0  0  0  0
   96.3081   -7.8192    0.0000 C   0  0  0  0  0  0  0  0  0  0  0  0
  101.1355   -6.5252    0.0000 C   0  0  0  0  0  0  0  0  0  0  0  0
  105.9656   -7.8192    0.0000 N   0  0  0  0  0  0  0  0  0  0  0  0
  110.7957   -6.5252    0.0000 C   0  0  0  0  0  0  0  0  0  0  0  0
  115.6257   -7.8192    0.0000 C   0  0  0  0  0  0  0  0  0  0  0  0
  120.4558   -6.5252    0.0000 N   0  0  0  0  0  0  0  0  0  0  0  0
  125.2859   -7.8192    0.0000 C   0  0  0  0  0  0  0  0  0  0  0  0
   86.6480   -2.8193    0.0000 O   0  0  0  0  0  0  0  0  0  0  0  0
  101.1355   -1.5249    0.0000 O   0  0  0  0  0  0  0  0  0  0  0  0
  115.6257   -2.8193    0.0000 O   0  0  0  0  0  0  0  0  0  0  0  0
   81.8179  -11.5252    0.0000 C   0  0  0  0  0  0  0  0  0  0  0  0
   79.3193  -15.8553    0.0000 C   0  0  0  0  0  0  0  0  0  0  0  0
   84.3191  -15.8553    0.0000 N   0  0  0  0  0  0  0  0  0  0  0  0
   79.3193  -20.8552    0.0000 C   0  0  0  0  0  0  0  0  0  0  0  0
   84.3191  -20.8552    0.0000 N   0  0  0  0  0  0  0  0  0  0  0  0
   88.6479  -18.3551    0.0000 C   0  0  0  0  0  0  0  0  0  0  0  0
   96.3081  -12.8192    0.0000 C   0  0  0  0  0  0  0  0  0  0  0  0
   91.9767  -15.3193    0.0000 C   0  0  0  0  0  0  0  0  0  0  0  0
   91.9767  -20.3193    0.0000 C   0  0  0  0  0  0  0  0  0  0  0  0
   96.3081  -22.8190    0.0000 C   0  0  0  0  0  0  0  0  0  0  0  0
  100.6369  -20.3193    0.0000 C   0  0  0  0  0  0  0  0  0  0  0  0
  100.6369  -15.3193    0.0000 C   0  0  0  0  0  0  0  0  0  0  0  0
   96.3081  -27.8194    0.0000 O   0  0  0  0  0  0  0  0  0  0  0  0
  113.2969  -10.8554    0.0000 C   0  0  0  0  0  0  0  0  0  0  0  0
  110.7957  -15.1855    0.0000 C   0  0  0  0  0  0  0  0  0  0  0  0
  113.2969  -19.5157    0.0000 C   0  0  0  0  0  0  0  0  0  0  0  0
  110.7957  -23.8454    0.0000 C   0  0  0  0  0  0  0  0  0  0  0  0
  113.2969  -28.1756    0.0000 N   0  0  0  0  0  0  0  0  0  0  0  0
  130.1133   -6.5252    0.0000 C   0  0  0  0  0  0  0  0  0  0  0  0
  134.9434   -7.8192    0.0000 N   0  0  0  0  0  0  0  0  0  0  0  0
  139.7734   -6.5252    0.0000 C   0  0  0  0  0  0  0  0  0  0  0  0
  144.6035   -7.8192    0.0000 C   0  0  0  0  0  0  0  0  0  0  0  0
  149.4336   -6.5252    0.0000 N   0  0  0  0  0  0  0  0  0  0  0  0
  154.2636   -7.8192    0.0000 C   0  0  0  0  0  0  0  0  0  0  0  0
  159.0911   -6.5252    0.0000 C   0  0  0  0  0  0  0  0  0  0  0  0
  163.9211   -7.8192    0.0000 N   0  0  0  0  0  0  0  0  0  0  0  0
  168.7512   -6.5252    0.0000 C   0  0  0  0  0  0  0  0  0  0  0  0
  173.5813   -7.8192    0.0000 C   0  0  0  0  0  0  0  0  0  0  0  0
  130.1133   -1.5249    0.0000 O   0  0  0  0  0  0  0  0  0  0  0  0
  144.6035   -2.8193    0.0000 O   0  0  0  0  0  0  0  0  0  0  0  0
  159.0911   -1.5249    0.0000 O   0  0  0  0  0  0  0  0  0  0  0  0
  173.5813   -2.8193    0.0000 O   0  0  0  0  0  0  0  0  0  0  0  0
  122.7846  -12.1494    0.0000 C   0  0  0  0  0  0  0  0  0  0  0  0
  125.2859  -16.4795    0.0000 C   0  0  0  0  0  0  0  0  0  0  0  0
  122.7846  -20.8097    0.0000 C   0  0  0  0  0  0  0  0  0  0  0  0
  125.2859  -25.1399    0.0000 N   0  0  0  0  0  0  0  0  0  0  0  0
  117.7848  -20.8097    0.0000 O   0  0  0  0  0  0  0  0  0  0  0  0
  142.2747  -10.8554    0.0000 C   0  0  0  0  0  0  0  0  0  0  0  0
  139.7734  -15.1855    0.0000 C   0  0  0  0  0  0  0  0  0  0  0  0
  144.7733  -15.1855    0.0000 N   0  0  0  0  0  0  0  0  0  0  0  0
  139.7734  -20.1855    0.0000 C   0  0  0  0  0  0  0  0  0  0  0  0
  144.7733  -20.1855    0.0000 N   0  0  0  0  0  0  0  0  0  0  0  0
  149.1047  -17.6853    0.0000 C   0  0  0  0  0  0  0  0  0  0  0  0
  156.7622  -12.1494    0.0000 C   0  0  0  0  0  0  0  0  0  0  0  0
  154.2636  -16.4795    0.0000 S   0  0  0  0  0  0  0  0  0  0  0  0
  178.2018   -9.7326    0.0000 O   0  0  0  0  0  0  0  0  0  0  0  0
  171.2524  -10.8554    0.0000 C   0  0  0  0  0  0  0  0  0  0  0  0
  163.9211  -12.8192    0.0000 C   0  0  0  0  0  0  0  0  0  0  0  0
  168.7512  -15.1855    0.0000 C   0  0  0  0  0  0  0  0  0  0  0  0
  1  2  1  0  0  0  0
  2  3  1  0  0  0  0
  3  4  1  0  0  0  0
  3  5  1  0  0  0  0
  2  6  1  0  0  0  0
  6  7  1  0  0  0  0
  7  8  1  0  0  0  0
  8  9  1  0  0  0  0
  9 10  1  0  0  0  0
 10 11  1  0  0  0  0
 11 12  1  0  0  0  0
 12 13  1  0  0  0  0
 13 14  1  0  0  0  0
 14 15  1  0  0  0  0
 15 16  1  0  0  0  0
 16 17  1  0  0  0  0
 17 18  1  0  0  0  0
 18 19  1  0  0  0  0
 19 20  1  0  0  0  0
  6 21  2  0  0  0  0
  9 22  2  1  0  0  0
 12 23  2  1  0  0  0
 15 24  2  1  0  0  0
 18 25  2  1  0  0  0
  8 26  1  0  0  0  0
 26 27  1  0  0  0  0
 27 28  1  0  0  0  0
 28 29  1  0  0  0  0
 11 30  1  0  0  0  0
 30 31  1  0  0  0  0
 31 32  1  0  0  0  0
 32 33  1  0  0  0  0
 28 34  2  0  0  0  0
 32 35  2  0  0  0  0
 14 36  1  0  0  0  0
 17 37  1  0  0  0  0
 37 38  1  0  0  0  0
 20 39  1  0  0  0  0
 39 40  1  0  0  0  0
 40 41  1  0  0  0  0
 41 42  1  0  0  0  0
 42 43  1  0  0  0  0
 43 44  1  0  0  0  0
 44 45  1  0  0  0  0
 45 46  1  0  0  0  0
 46 47  1  0  0  0  0
 39 48  2  0  0  0  0
 42 49  2  0  0  0  0
 45 50  2  0  0  0  0
 20 51  1  0  0  0  0
 51 52  1  0  0  0  0
 52 53  1  0  0  0  0
 52 54  2  0  0  0  0
 54 55  1  0  0  0  0
 55 56  2  0  0  0  0
 53 56  1  0  0  0  0
 41 57  1  0  0  0  0
 57 58  2  0  0  0  0
 58 59  1  0  0  0  0
 59 60  2  0  0  0  0
 60 61  1  0  0  0  0
 61 62  2  0  0  0  0
 62 57  1  0  0  0  0
 60 63  1  0  0  0  0
 44 64  1  0  0  0  0
 64 65  1  0  0  0  0
 65 66  1  0  0  0  0
 66 67  1  0  0  0  0
 67 68  1  0  0  0  0
 47 69  1  0  0  0  0
 69 70  1  0  0  0  0
 70 71  1  0  0  0  0
 71 72  1  0  0  0  0
 72 73  1  0  0  0  0
 73 74  1  0  0  0  0
 74 75  1  0  0  0  0
 75 76  1  0  0  0  0
 76 77  1  0  0  0  0
 77 78  1  0  0  0  0
 69 79  2  0  0  0  0
 72 80  2  0  0  0  0
 75 81  2  0  0  0  0
 78 82  2  0  0  0  0
 47 83  1  0  0  0  0
 83 84  1  0  0  0  0
 84 85  1  0  0  0  0
 85 86  1  0  0  0  0
 85 87  2  0  0  0  0
 71 88  1  0  0  0  0
 88 89  1  0  0  0  0
 89 90  1  0  0  0  0
 89 91  2  0  0  0  0
 91 92  1  0  0  0  0
 92 93  2  0  0  0  0
 90 93  1  0  0  0  0
 74 94  1  0  0  0  0
 94 95  1  0  0  0  0
 78 96  1  0  0  0  0
 77 97  1  0  0  0  0
 76 98  1  0  0  0  0
 97 99  1  0  0  0  0
 98 99  1  0  0  0  0
M  END
>  <mcule ID>
S-871250796

$$$$