


126129  0  0  0  0  0  0  0  0999 V2000
  172.9231  247.2510  213.0990 C   0  0  0  0  0  0  0  0  0  0  0  0
  171.9597  246.9728  214.2295 C   0  0  0  0  0  0  0  0  0  0  0  0
  172.2546  246.0095  215.2110 C   0  0  0  0  0  0  0  0  0  0  0  0
  171.3785  245.7966  216.2781 C   0  0  0  0  0  0  0  0  0  0  0  0
  170.1872  246.5273  216.3695 C   0  0  0  0  0  0  0  0  0  0  0  0
  169.3207  246.3095  217.4399 O   0  0  0  0  0  0  0  0  0  0  0  0
  169.8781  247.4765  215.3879 C   0  0  0  0  0  0  0  0  0  0  0  0
  170.7649  247.7032  214.3301 C   0  0  0  0  0  0  0  0  0  0  0  0
  168.4328  246.7938  217.5034 H   0  0  0  0  0  0  0  0  0  0  0  0
  173.8063  246.0574  212.8453 C   0  0  0  0  0  0  0  0  0  0  0  0
  173.3297  244.8922  212.8722 O   0  0  0  0  0  0  0  0  0  0  0  0
  175.2091  246.2452  212.6140 N   0  0  0  0  0  0  0  0  0  0  0  0
  175.4804  247.0348  211.9837 H   0  0  0  0  0  0  0  0  0  0  0  0
  176.2739  245.6865  213.4635 C   0  0  0  0  0  0  0  0  0  0  0  0
  176.5675  244.2725  213.0211 C   0  0  0  0  0  0  0  0  0  0  0  0
  177.4507  243.5863  213.6108 O   0  0  0  0  0  0  0  0  0  0  0  0
  175.8446  243.7142  211.9152 N   0  0  0  0  0  0  0  0  0  0  0  0
  174.9860  244.2136  211.5883 H   0  0  0  0  0  0  0  0  0  0  0  0
  176.4543  242.7317  211.0118 C   0  0  0  0  0  0  0  0  0  0  0  0
  175.4756  241.6165  210.7328 C   0  0  0  0  0  0  0  0  0  0  0  0
  175.8377  240.4206  210.8909 O   0  0  0  0  0  0  0  0  0  0  0  0
  174.1197  241.9160  210.3534 N   0  0  0  0  0  0  0  0  0  0  0  0
  173.8471  242.9267  210.3086 H   0  0  0  0  0  0  0  0  0  0  0  0
  173.0736  240.8803  210.3205 C   0  0  0  0  0  0  0  0  0  0  0  0
  171.9627  241.2295  209.3507 C   0  0  0  0  0  0  0  0  0  0  0  0
  171.9792  240.7384  208.1891 O   0  0  0  0  0  0  0  0  0  0  0  0
  170.9613  242.2173  209.6616 N   0  0  0  0  0  0  0  0  0  0  0  0
  170.6883  242.8558  208.8771 H   0  0  0  0  0  0  0  0  0  0  0  0
  170.0641  242.2043  210.8316 C   0  0  0  0  0  0  0  0  0  0  0  0
  168.9998  243.2735  210.7288 C   0  0  0  0  0  0  0  0  0  0  0  0
  168.7741  243.8307  209.6260 O   0  0  0  0  0  0  0  0  0  0  0  0
  168.3237  243.7623  211.8953 N   0  0  0  0  0  0  0  0  0  0  0  0
  167.0472  243.2347  212.3446 C   0  0  0  0  0  0  0  0  0  0  0  0
  166.4801  244.2830  213.2906 C   0  0  0  0  0  0  0  0  0  0  0  0
  167.6674  245.1533  213.6973 C   0  0  0  0  0  0  0  0  0  0  0  0
  168.6981  244.9940  212.5783 C   0  0  0  0  0  0  0  0  0  0  0  0
  168.6635  246.1665  211.6369 C   0  0  0  0  0  0  0  0  0  0  0  0
  167.4509  246.7702  211.3361 O   0  0  0  0  0  0  0  0  0  0  0  0
  169.7253  246.5799  211.0982 O   0  0  0  0  0  0  0  0  0  0  0  0
  167.4041  247.5513  210.6932 H   0  0  0  0  0  0  0  0  0  0  0  0
  169.4828  240.7962  211.0725 C   0  0  0  0  0  0  0  0  0  0  0  0
  168.3708  240.2734  209.7232 S   0  0  0  0  0  0  0  0  0  0  0  0
  169.3303  240.3944  208.7074 H   0  0  0  0  0  0  0  0  0  0  0  0
  172.5151  240.6578  211.7427 C   0  0  0  0  0  0  0  0  0  0  0  0
  172.6866  239.2377  212.2174 C   0  0  0  0  0  0  0  0  0  0  0  0
  171.7548  238.2281  212.1356 C   0  0  0  0  0  0  0  0  0  0  0  0
  172.2600  237.1132  212.6980 N   0  0  0  0  0  0  0  0  0  0  0  0
  173.4894  237.4788  213.1203 C   0  0  0  0  0  0  0  0  0  0  0  0
  173.7784  238.7632  212.8428 N   0  0  0  0  0  0  0  0  0  0  0  0
  174.6438  239.2868  213.1023 H   0  0  0  0  0  0  0  0  0  0  0  0
  176.8659  243.4123  209.6890 C   0  0  0  0  0  0  0  0  0  0  0  0
  176.1847  244.7778  209.4949 C   0  0  0  0  0  0  0  0  0  0  0  0
  175.6357  244.9188  208.1021 C   0  0  0  0  0  0  0  0  0  0  0  0
  175.4897  246.0644  207.5982 O   0  0  0  0  0  0  0  0  0  0  0  0
  175.2685  243.7619  207.3478 N   0  0  0  0  0  0  0  0  0  0  0  0
  174.9288  243.8589  206.3649 H   0  0  0  0  0  0  0  0  0  0  0  0
  175.3213  242.8067  207.7644 H   0  0  0  0  0  0  0  0  0  0  0  0
  175.9653  245.7832  214.9793 C   0  0  0  0  0  0  0  0  0  0  0  0
  177.1818  246.2451  215.8000 C   0  0  0  0  0  0  0  0  0  0  0  0
  178.0638  247.2588  215.0488 C   0  0  0  0  0  0  0  0  0  0  0  0
  178.9648  248.1302  215.9489 C   0  0  0  0  0  0  0  0  0  0  0  0
  178.3368  248.4501  217.2332 N   0  0  0  0  0  0  0  0  0  0  0  0
  178.2994  247.5812  217.8176 H   0  0  0  0  0  0  0  0  0  0  0  0
  177.3595  248.7667  217.0671 H   0  0  0  0  0  0  0  0  0  0  0  0
  172.6473  248.7282  211.0868 C   0  0  0  0  0  0  0  0  0  0  0  0
  172.9375  249.8272  211.6303 O   0  0  0  0  0  0  0  0  0  0  0  0
  172.1928  247.6335  211.8865 N   0  0  0  0  0  0  0  0  0  0  0  0
  171.4464  247.0062  211.5059 H   0  0  0  0  0  0  0  0  0  0  0  0
  172.9781  248.4931  209.6420 C   0  0  0  0  0  0  0  0  0  0  0  0
  172.2197  246.2926  208.6043 C   0  0  0  0  0  0  0  0  0  0  0  0
  171.9176  245.1134  208.9503 O   0  0  0  0  0  0  0  0  0  0  0  0
  173.1163  247.0489  209.4358 N   0  0  0  0  0  0  0  0  0  0  0  0
  173.6557  246.5071  210.1451 H   0  0  0  0  0  0  0  0  0  0  0  0
  171.7222  246.8474  207.2862 C   0  0  0  0  0  0  0  0  0  0  0  0
  169.3222  247.6118  207.0128 C   0  0  0  0  0  0  0  0  0  0  0  0
  169.5787  248.7215  207.5566 O   0  0  0  0  0  0  0  0  0  0  0  0
  170.2993  246.5587  207.0548 N   0  0  0  0  0  0  0  0  0  0  0  0
  169.9741  245.5853  206.8701 H   0  0  0  0  0  0  0  0  0  0  0  0
  168.0103  247.3839  206.3000 C   0  0  0  0  0  0  0  0  0  0  0  0
  167.6962  245.8885  206.2788 C   0  0  0  0  0  0  0  0  0  0  0  0
  167.7495  249.3013  204.6322 C   0  0  0  0  0  0  0  0  0  0  0  0
  167.3372  250.0757  205.5378 O   0  0  0  0  0  0  0  0  0  0  0  0
  168.0203  247.9201  204.9278 N   0  0  0  0  0  0  0  0  0  0  0  0
  168.2718  247.3096  204.1217 H   0  0  0  0  0  0  0  0  0  0  0  0
  167.9546  249.8354  203.2360 C   0  0  0  0  0  0  0  0  0  0  0  0
  169.6988  249.6410  201.4040 C   0  0  0  0  0  0  0  0  0  0  0  0
  170.5469  250.5222  201.0899 O   0  0  0  0  0  0  0  0  0  0  0  0
  169.3105  249.5164  202.7772 N   0  0  0  0  0  0  0  0  0  0  0  0
  170.0776  249.6164  203.4724 H   0  0  0  0  0  0  0  0  0  0  0  0
  169.2542  248.6538  200.3376 C   0  0  0  0  0  0  0  0  0  0  0  0
  167.8283  246.6306  200.7742 C   0  0  0  0  0  0  0  0  0  0  0  0
  167.2541  246.5368  199.6544 O   0  0  0  0  0  0  0  0  0  0  0  0
  169.0921  247.2969  200.8644 N   0  0  0  0  0  0  0  0  0  0  0  0
  169.9000  246.7800  201.2727 H   0  0  0  0  0  0  0  0  0  0  0  0
  166.0020  246.9892  202.3603 N   0  0  0  0  0  0  0  0  0  0  0  0
  167.1440  246.1269  202.0274 C   0  0  0  0  0  0  0  0  0  0  0  0
  165.6309  246.6974  203.2949 H   0  0  0  0  0  0  0  0  0  0  0  0
  166.3493  247.9666  202.4861 H   0  0  0  0  0  0  0  0  0  0  0  0
  166.7145  244.6493  201.8903 C   0  0  0  0  0  0  0  0  0  0  0  0
  167.7936  243.9101  201.3667 O   0  0  0  0  0  0  0  0  0  0  0  0
  166.2800  244.0346  203.2284 C   0  0  0  0  0  0  0  0  0  0  0  0
  167.4242  243.0457  201.0527 H   0  0  0  0  0  0  0  0  0  0  0  0
  170.2049  248.6639  199.1279 C   0  0  0  0  0  0  0  0  0  0  0  0
  169.6837  249.4766  197.9292 C   0  0  0  0  0  0  0  0  0  0  0  0
  170.7235  250.4236  197.3851 C   0  0  0  0  0  0  0  0  0  0  0  0
  170.7724  250.7048  196.1591 O   0  0  0  0  0  0  0  0  0  0  0  0
  171.6611  251.0265  198.2749 N   0  0  0  0  0  0  0  0  0  0  0  0
  172.3727  251.6970  197.9143 H   0  0  0  0  0  0  0  0  0  0  0  0
  171.6148  250.8417  199.3041 H   0  0  0  0  0  0  0  0  0  0  0  0
  167.6396  251.3502  203.0512 C   0  0  0  0  0  0  0  0  0  0  0  0
  166.7315  251.7581  201.8723 C   0  0  0  0  0  0  0  0  0  0  0  0
  167.2839  252.7915  200.9173 C   0  0  0  0  0  0  0  0  0  0  0  0
  166.4739  253.5445  200.3207 O   0  0  0  0  0  0  0  0  0  0  0  0
  168.6799  252.9205  200.6278 N   0  0  0  0  0  0  0  0  0  0  0  0
  169.3866  252.2230  200.9395 H   0  0  0  0  0  0  0  0  0  0  0  0
  169.0074  253.6769  199.9814 H   0  0  0  0  0  0  0  0  0  0  0  0
  172.5850  246.2824  206.1386 C   0  0  0  0  0  0  0  0  0  0  0  0
  172.8039  244.9041  206.3074 O   0  0  0  0  0  0  0  0  0  0  0  0
  172.0340  244.4416  205.8773 H   0  0  0  0  0  0  0  0  0  0  0  0
  174.2593  249.2340  209.2174 C   0  0  0  0  0  0  0  0  0  0  0  0
  173.9337  250.3453  208.2599 C   0  0  0  0  0  0  0  0  0  0  0  0
  172.8010  250.4352  207.4720 C   0  0  0  0  0  0  0  0  0  0  0  0
  172.8900  251.5364  206.6977 N   0  0  0  0  0  0  0  0  0  0  0  0
  174.0773  252.0901  207.0372 C   0  0  0  0  0  0  0  0  0  0  0  0
  174.7282  251.3918  207.9904 N   0  0  0  0  0  0  0  0  0  0  0  0
  175.6650  251.6073  208.3947 H   0  0  0  0  0  0  0  0  0  0  0  0
 95 96  1  0  0  0
 96 91  1  0  0  0
 91 92  2  0  0  0
 91 93  1  0  0  0
 93 90  1  0  0  0
 90103  1  0  0  0
103104  1  0  0  0
104105  1  0  0  0
105106  2  0  0  0
105107  1  0  0  0
 90 86  1  0  0  0
 86 87  2  0  0  0
 86 88  1  0  0  0
 88 85  1  0  0  0
 85110  1  0  0  0
110111  1  0  0  0
111112  1  0  0  0
112113  2  0  0  0
112114  1  0  0  0
 85 81  1  0  0  0
 81 82  2  0  0  0
 81 83  1  0  0  0
 83 79  1  0  0  0
 79 80  1  0  0  0
 79 75  1  0  0  0
 75 76  2  0  0  0
 75 77  1  0  0  0
 77 74  1  0  0  0
 74117  1  0  0  0
117118  1  0  0  0
 74 70  1  0  0  0
 70 71  2  0  0  0
 70 72  1  0  0  0
 72 69  1  0  0  0
 69120  1  0  0  0
120121  1  0  0  0
121122  2  0  0  0
122123  1  0  0  0
123124  2  0  0  0
124125  1  0  0  0
 69 65  1  0  0  0
 65 66  2  0  0  0
 65 67  1  0  0  0
 67  1  1  0  0  0
  1  2  1  0  0  0
  2  3  2  0  0  0
  3  4  1  0  0  0
  4  5  2  0  0  0
  5  6  1  0  0  0
  5  7  1  0  0  0
  7  8  2  0  0  0
  1 10  1  0  0  0
 10 11  2  0  0  0
 10 12  1  0  0  0
 12 14  1  0  0  0
 14 58  1  0  0  0
 58 59  1  0  0  0
 59 60  1  0  0  0
 60 61  1  0  0  0
 61 62  1  0  0  0
 14 15  1  0  0  0
 15 16  2  0  0  0
 15 17  1  0  0  0
 17 19  1  0  0  0
 19 51  1  0  0  0
 51 52  1  0  0  0
 52 53  1  0  0  0
 53 54  2  0  0  0
 53 55  1  0  0  0
 19 20  1  0  0  0
 20 21  2  0  0  0
 20 22  1  0  0  0
 22 24  1  0  0  0
 24 44  1  0  0  0
 44 45  1  0  0  0
 45 46  2  0  0  0
 46 47  1  0  0  0
 47 48  2  0  0  0
 48 49  1  0  0  0
 24 25  1  0  0  0
 25 26  2  0  0  0
 25 27  1  0  0  0
 27 29  1  0  0  0
 29 41  1  0  0  0
 41 42  1  0  0  0
 29 30  1  0  0  0
 30 31  2  0  0  0
 30 32  1  0  0  0
 32 33  1  0  0  0
 33 34  1  0  0  0
 34 35  1  0  0  0
 35 36  1  0  0  0
 36 37  1  0  0  0
 37 38  1  0  0  0
 37 39  2  0  0  0
 96 99  1  0  0  0
 99100  1  0  0  0
 99101  1  0  0  0
125121  1  0  0  0
  8  2  1  0  0  0
 49 45  1  0  0  0
 36 32  1  0  0  0
 95 97  1  0  0  0
 95 98  1  0  0  0
 93 94  1  0  0  0
107108  1  0  0  0
107109  1  0  0  0
 88 89  1  0  0  0
114115  1  0  0  0
114116  1  0  0  0
 83 84  1  0  0  0
 77 78  1  0  0  0
118119  1  0  0  0
 72 73  1  0  0  0
125126  1  0  0  0
 67 68  1  0  0  0
  6  9  1  0  0  0
 12 13  1  0  0  0
 62 63  1  0  0  0
 62 64  1  0  0  0
 17 18  1  0  0  0
 55 56  1  0  0  0
 55 57  1  0  0  0
 22 23  1  0  0  0
 49 50  1  0  0  0
 27 28  1  0  0  0
 42 43  1  0  0  0
 38 40  1  0  0  0
100102  1  0  0  0
M  END
> <minimizedAffinity>
-8.66344

$$$$



126129  0  0  0  0  0  0  0  0999 V2000
  173.9074  246.8567  209.3140 C   0  0  0  0  0  0  0  0  0  0  0  0
  173.9346  245.9388  208.1139 C   0  0  0  0  0  0  0  0  0  0  0  0
  173.0349  246.1155  207.0473 C   0  0  0  0  0  0  0  0  0  0  0  0
  173.1027  245.2910  205.9217 C   0  0  0  0  0  0  0  0  0  0  0  0
  174.0554  244.2667  205.8536 C   0  0  0  0  0  0  0  0  0  0  0  0
  174.1169  243.4509  204.7245 O   0  0  0  0  0  0  0  0  0  0  0  0
  174.9441  244.0736  206.9180 C   0  0  0  0  0  0  0  0  0  0  0  0
  174.8887  244.9117  208.0365 C   0  0  0  0  0  0  0  0  0  0  0  0
  174.7676  242.6758  204.6717 H   0  0  0  0  0  0  0  0  0  0  0  0
  172.6580  246.6357  210.1260 C   0  0  0  0  0  0  0  0  0  0  0  0
  172.5025  245.5734  210.7838 O   0  0  0  0  0  0  0  0  0  0  0  0
  171.6179  247.6230  210.1162 N   0  0  0  0  0  0  0  0  0  0  0  0
  171.9180  248.6231  210.1814 H   0  0  0  0  0  0  0  0  0  0  0  0
  170.2435  247.3782  209.6488 C   0  0  0  0  0  0  0  0  0  0  0  0
  169.9531  248.2822  208.4741 C   0  0  0  0  0  0  0  0  0  0  0  0
  168.9223  248.1009  207.7647 O   0  0  0  0  0  0  0  0  0  0  0  0
  170.8639  249.3444  208.1586 N   0  0  0  0  0  0  0  0  0  0  0  0
  171.5811  249.6042  208.8739 H   0  0  0  0  0  0  0  0  0  0  0  0
  171.0748  249.7956  206.7783 C   0  0  0  0  0  0  0  0  0  0  0  0
  172.3842  250.5404  206.6778 C   0  0  0  0  0  0  0  0  0  0  0  0
  172.4290  251.6328  206.0524 O   0  0  0  0  0  0  0  0  0  0  0  0
  173.5579  250.0426  207.3461 N   0  0  0  0  0  0  0  0  0  0  0  0
  173.4507  249.1696  207.9156 H   0  0  0  0  0  0  0  0  0  0  0  0
  174.7772  250.8559  207.4877 C   0  0  0  0  0  0  0  0  0  0  0  0
  176.0115  249.9966  207.6736 C   0  0  0  0  0  0  0  0  0  0  0  0
  175.8776  248.7810  207.9819 O   0  0  0  0  0  0  0  0  0  0  0  0
  177.3396  250.5540  207.6497 N   0  0  0  0  0  0  0  0  0  0  0  0
  178.0097  250.1721  208.3587 H   0  0  0  0  0  0  0  0  0  0  0  0
  177.9330  251.3342  206.5482 C   0  0  0  0  0  0  0  0  0  0  0  0
  177.5495  250.7716  205.1980 C   0  0  0  0  0  0  0  0  0  0  0  0
  177.9713  249.6423  204.8455 O   0  0  0  0  0  0  0  0  0  0  0  0
  176.8145  251.5562  204.2487 N   0  0  0  0  0  0  0  0  0  0  0  0
  175.3680  251.4970  204.1301 C   0  0  0  0  0  0  0  0  0  0  0  0
  175.0434  252.0938  202.7686 C   0  0  0  0  0  0  0  0  0  0  0  0
  176.2830  252.8884  202.3631 C   0  0  0  0  0  0  0  0  0  0  0  0
  177.4434  252.2697  203.1447 C   0  0  0  0  0  0  0  0  0  0  0  0
  178.2422  251.3331  202.2804 C   0  0  0  0  0  0  0  0  0  0  0  0
  179.6159  251.4983  202.1757 O   0  0  0  0  0  0  0  0  0  0  0  0
  177.6645  250.4220  201.6288 O   0  0  0  0  0  0  0  0  0  0  0  0
  180.1698  250.8878  201.5875 H   0  0  0  0  0  0  0  0  0  0  0  0
  177.6082  252.8352  206.6902 C   0  0  0  0  0  0  0  0  0  0  0  0
  178.7061  253.6638  207.8897 S   0  0  0  0  0  0  0  0  0  0  0  0
  179.8975  253.3362  207.2259 H   0  0  0  0  0  0  0  0  0  0  0  0
  174.6110  251.8448  208.6619 C   0  0  0  0  0  0  0  0  0  0  0  0
  174.6030  253.2831  208.2119 C   0  0  0  0  0  0  0  0  0  0  0  0
  174.9722  254.3778  208.9598 C   0  0  0  0  0  0  0  0  0  0  0  0
  174.7939  255.4944  208.2277 N   0  0  0  0  0  0  0  0  0  0  0  0
  174.3067  255.0483  207.0500 C   0  0  0  0  0  0  0  0  0  0  0  0
  174.1795  253.7095  207.0088 N   0  0  0  0  0  0  0  0  0  0  0  0
  173.7901  253.1351  206.2286 H   0  0  0  0  0  0  0  0  0  0  0  0
  171.0845  248.5849  205.8209 C   0  0  0  0  0  0  0  0  0  0  0  0
  170.0888  248.7471  204.6597 C   0  0  0  0  0  0  0  0  0  0  0  0
  169.1884  249.9318  204.8764 C   0  0  0  0  0  0  0  0  0  0  0  0
  169.5531  251.0754  204.4933 O   0  0  0  0  0  0  0  0  0  0  0  0
  167.9243  249.7719  205.5232 N   0  0  0  0  0  0  0  0  0  0  0  0
  167.2812  250.5875  205.6337 H   0  0  0  0  0  0  0  0  0  0  0  0
  167.6262  248.8476  205.9049 H   0  0  0  0  0  0  0  0  0  0  0  0
  169.1814  247.5016  210.7708 C   0  0  0  0  0  0  0  0  0  0  0  0
  169.7939  247.9203  212.1184 C   0  0  0  0  0  0  0  0  0  0  0  0
  168.7472  248.4478  213.1164 C   0  0  0  0  0  0  0  0  0  0  0  0
  168.5915  247.6072  214.4012 C   0  0  0  0  0  0  0  0  0  0  0  0
  167.2848  246.9509  214.4898 N   0  0  0  0  0  0  0  0  0  0  0  0
  167.2420  246.1841  213.7770 H   0  0  0  0  0  0  0  0  0  0  0  0
  166.5391  247.6406  214.2636 H   0  0  0  0  0  0  0  0  0  0  0  0
  175.3257  247.4706  211.2937 C   0  0  0  0  0  0  0  0  0  0  0  0
  175.1975  248.7221  211.2246 O   0  0  0  0  0  0  0  0  0  0  0  0
  175.1087  246.6649  210.1325 N   0  0  0  0  0  0  0  0  0  0  0  0
  175.7198  245.8296  209.9765 H   0  0  0  0  0  0  0  0  0  0  0  0
  175.4926  246.8040  212.6278 C   0  0  0  0  0  0  0  0  0  0  0  0
  173.4511  247.3577  214.0490 C   0  0  0  0  0  0  0  0  0  0  0  0
  172.6990  248.3384  214.3209 O   0  0  0  0  0  0  0  0  0  0  0  0
  174.8025  247.6173  213.6325 N   0  0  0  0  0  0  0  0  0  0  0  0
  175.1625  248.5803  213.8076 H   0  0  0  0  0  0  0  0  0  0  0  0
  172.9578  245.9419  214.2610 C   0  0  0  0  0  0  0  0  0  0  0  0
  171.1025  244.4463  213.4007 C   0  0  0  0  0  0  0  0  0  0  0  0
  171.9284  243.5438  213.0905 O   0  0  0  0  0  0  0  0  0  0  0  0
  171.5822  245.7468  213.7803 N   0  0  0  0  0  0  0  0  0  0  0  0
  170.9090  246.5425  213.7477 H   0  0  0  0  0  0  0  0  0  0  0  0
  169.6176  244.1705  213.3988 C   0  0  0  0  0  0  0  0  0  0  0  0
  169.1660  243.8077  214.8130 C   0  0  0  0  0  0  0  0  0  0  0  0
  168.2113  243.2496  211.4752 C   0  0  0  0  0  0  0  0  0  0  0  0
  167.4660  244.2666  211.4905 O   0  0  0  0  0  0  0  0  0  0  0  0
  169.2504  243.0980  212.4578 N   0  0  0  0  0  0  0  0  0  0  0  0
  169.7742  242.1972  212.4498 H   0  0  0  0  0  0  0  0  0  0  0  0
  168.0025  242.1929  210.4186 C   0  0  0  0  0  0  0  0  0  0  0  0
  169.8910  240.8217  209.4239 C   0  0  0  0  0  0  0  0  0  0  0  0
  169.8958  240.2833  208.2817 O   0  0  0  0  0  0  0  0  0  0  0  0
  169.2094  242.0699  209.5947 N   0  0  0  0  0  0  0  0  0  0  0  0
  169.3197  242.7526  208.8178 H   0  0  0  0  0  0  0  0  0  0  0  0
  170.7420  240.2002  210.5189 C   0  0  0  0  0  0  0  0  0  0  0  0
  172.9646  239.0616  210.8026 C   0  0  0  0  0  0  0  0  0  0  0  0
  172.7786  238.5227  211.9284 O   0  0  0  0  0  0  0  0  0  0  0  0
  171.8374  239.3889  209.9832 N   0  0  0  0  0  0  0  0  0  0  0  0
  171.7952  239.0023  209.0162 H   0  0  0  0  0  0  0  0  0  0  0  0
  174.4344  239.4863  208.8950 N   0  0  0  0  0  0  0  0  0  0  0  0
  174.3613  239.4455  210.3617 C   0  0  0  0  0  0  0  0  0  0  0  0
  175.4349  239.6245  208.6191 H   0  0  0  0  0  0  0  0  0  0  0  0
  174.1650  238.5478  208.5226 H   0  0  0  0  0  0  0  0  0  0  0  0
  174.8107  240.7849  210.9867 C   0  0  0  0  0  0  0  0  0  0  0  0
  176.2169  240.7960  211.0728 O   0  0  0  0  0  0  0  0  0  0  0  0
  174.3423  242.0012  210.1754 C   0  0  0  0  0  0  0  0  0  0  0  0
  176.4609  241.5281  211.6946 H   0  0  0  0  0  0  0  0  0  0  0  0
  169.8863  239.3862  211.5050 C   0  0  0  0  0  0  0  0  0  0  0  0
  168.7890  238.5421  210.8323 C   0  0  0  0  0  0  0  0  0  0  0  0
  169.2318  237.1223  210.5834 C   0  0  0  0  0  0  0  0  0  0  0  0
  168.6561  236.3994  209.7288 O   0  0  0  0  0  0  0  0  0  0  0  0
  170.3332  236.5895  211.3165 N   0  0  0  0  0  0  0  0  0  0  0  0
  170.6609  235.6161  211.1405 H   0  0  0  0  0  0  0  0  0  0  0  0
  170.8551  237.1836  212.0022 H   0  0  0  0  0  0  0  0  0  0  0  0
  166.7335  242.3797  209.5337 C   0  0  0  0  0  0  0  0  0  0  0  0
  166.5280  241.4054  208.3549 C   0  0  0  0  0  0  0  0  0  0  0  0
  166.3394  242.0246  206.9889 C   0  0  0  0  0  0  0  0  0  0  0  0
  166.5397  243.2586  206.8615 O   0  0  0  0  0  0  0  0  0  0  0  0
  165.9002  241.2803  205.8477 N   0  0  0  0  0  0  0  0  0  0  0  0
  165.5437  240.3049  205.9145 H   0  0  0  0  0  0  0  0  0  0  0  0
  165.8182  241.7567  204.9184 H   0  0  0  0  0  0  0  0  0  0  0  0
  173.0662  245.5844  215.7579 C   0  0  0  0  0  0  0  0  0  0  0  0
  172.0690  246.2374  216.5031 O   0  0  0  0  0  0  0  0  0  0  0  0
  171.2678  245.6465  216.4805 H   0  0  0  0  0  0  0  0  0  0  0  0
  176.9760  246.6174  212.9960 C   0  0  0  0  0  0  0  0  0  0  0  0
  177.1124  246.1500  214.4174 C   0  0  0  0  0  0  0  0  0  0  0  0
  176.7367  244.9125  214.9069 C   0  0  0  0  0  0  0  0  0  0  0  0
  176.9523  244.8823  216.2384 N   0  0  0  0  0  0  0  0  0  0  0  0
  177.4566  246.1051  216.5244 C   0  0  0  0  0  0  0  0  0  0  0  0
  177.5729  246.8925  215.4351 N   0  0  0  0  0  0  0  0  0  0  0  0
  177.9120  247.8782  215.4083 H   0  0  0  0  0  0  0  0  0  0  0  0
 95 96  1  0  0  0
 96 91  1  0  0  0
 91 92  2  0  0  0
 91 93  1  0  0  0
 93 90  1  0  0  0
 90103  1  0  0  0
103104  1  0  0  0
104105  1  0  0  0
105106  2  0  0  0
105107  1  0  0  0
 90 86  1  0  0  0
 86 87  2  0  0  0
 86 88  1  0  0  0
 88 85  1  0  0  0
 85110  1  0  0  0
110111  1  0  0  0
111112  1  0  0  0
112113  2  0  0  0
112114  1  0  0  0
 85 81  1  0  0  0
 81 82  2  0  0  0
 81 83  1  0  0  0
 83 79  1  0  0  0
 79 80  1  0  0  0
 79 75  1  0  0  0
 75 76  2  0  0  0
 75 77  1  0  0  0
 77 74  1  0  0  0
 74117  1  0  0  0
117118  1  0  0  0
 74 70  1  0  0  0
 70 71  2  0  0  0
 70 72  1  0  0  0
 72 69  1  0  0  0
 69120  1  0  0  0
120121  1  0  0  0
121122  2  0  0  0
122123  1  0  0  0
123124  2  0  0  0
124125  1  0  0  0
 69 65  1  0  0  0
 65 66  2  0  0  0
 65 67  1  0  0  0
 67  1  1  0  0  0
  1  2  1  0  0  0
  2  3  2  0  0  0
  3  4  1  0  0  0
  4  5  2  0  0  0
  5  6  1  0  0  0
  5  7  1  0  0  0
  7  8  2  0  0  0
  1 10  1  0  0  0
 10 11  2  0  0  0
 10 12  1  0  0  0
 12 14  1  0  0  0
 14 58  1  0  0  0
 58 59  1  0  0  0
 59 60  1  0  0  0
 60 61  1  0  0  0
 61 62  1  0  0  0
 14 15  1  0  0  0
 15 16  2  0  0  0
 15 17  1  0  0  0
 17 19  1  0  0  0
 19 51  1  0  0  0
 51 52  1  0  0  0
 52 53  1  0  0  0
 53 54  2  0  0  0
 53 55  1  0  0  0
 19 20  1  0  0  0
 20 21  2  0  0  0
 20 22  1  0  0  0
 22 24  1  0  0  0
 24 44  1  0  0  0
 44 45  1  0  0  0
 45 46  2  0  0  0
 46 47  1  0  0  0
 47 48  2  0  0  0
 48 49  1  0  0  0
 24 25  1  0  0  0
 25 26  2  0  0  0
 25 27  1  0  0  0
 27 29  1  0  0  0
 29 41  1  0  0  0
 41 42  1  0  0  0
 29 30  1  0  0  0
 30 31  2  0  0  0
 30 32  1  0  0  0
 32 33  1  0  0  0
 33 34  1  0  0  0
 34 35  1  0  0  0
 35 36  1  0  0  0
 36 37  1  0  0  0
 37 38  1  0  0  0
 37 39  2  0  0  0
 96 99  1  0  0  0
 99100  1  0  0  0
 99101  1  0  0  0
125121  1  0  0  0
  8  2  1  0  0  0
 49 45  1  0  0  0
 36 32  1  0  0  0
 95 97  1  0  0  0
 95 98  1  0  0  0
 93 94  1  0  0  0
107108  1  0  0  0
107109  1  0  0  0
 88 89  1  0  0  0
114115  1  0  0  0
114116  1  0  0  0
 83 84  1  0  0  0
 77 78  1  0  0  0
118119  1  0  0  0
 72 73  1  0  0  0
125126  1  0  0  0
 67 68  1  0  0  0
  6  9  1  0  0  0
 12 13  1  0  0  0
 62 63  1  0  0  0
 62 64  1  0  0  0
 17 18  1  0  0  0
 55 56  1  0  0  0
 55 57  1  0  0  0
 22 23  1  0  0  0
 49 50  1  0  0  0
 27 28  1  0  0  0
 42 43  1  0  0  0
 38 40  1  0  0  0
100102  1  0  0  0
M  END
> <minimizedAffinity>
-8.49637

$$$$



126129  0  0  0  0  0  0  0  0999 V2000
  171.2925  247.2316  206.0646 C   0  0  0  0  0  0  0  0  0  0  0  0
  169.8119  247.3367  205.7811 C   0  0  0  0  0  0  0  0  0  0  0  0
  168.9270  246.3134  206.1662 C   0  0  0  0  0  0  0  0  0  0  0  0
  167.5544  246.4447  205.9425 C   0  0  0  0  0  0  0  0  0  0  0  0
  167.0483  247.5893  205.3137 C   0  0  0  0  0  0  0  0  0  0  0  0
  165.6764  247.7123  205.0974 O   0  0  0  0  0  0  0  0  0  0  0  0
  167.9240  248.6053  204.9124 C   0  0  0  0  0  0  0  0  0  0  0  0
  169.2962  248.4821  205.1541 C   0  0  0  0  0  0  0  0  0  0  0  0
  165.2920  248.5102  204.6049 H   0  0  0  0  0  0  0  0  0  0  0  0
  171.6760  248.1085  207.2279 C   0  0  0  0  0  0  0  0  0  0  0  0
  170.9869  248.1104  208.2817 O   0  0  0  0  0  0  0  0  0  0  0  0
  172.8095  248.9805  207.1196 N   0  0  0  0  0  0  0  0  0  0  0  0
  173.6664  248.5843  206.6689 H   0  0  0  0  0  0  0  0  0  0  0  0
  172.7441  250.4469  207.2321 C   0  0  0  0  0  0  0  0  0  0  0  0
  173.0760  251.0602  205.8923 C   0  0  0  0  0  0  0  0  0  0  0  0
  172.5525  250.6096  204.8332 O   0  0  0  0  0  0  0  0  0  0  0  0
  174.0025  252.1532  205.8262 N   0  0  0  0  0  0  0  0  0  0  0  0
  174.2518  252.6394  206.7178 H   0  0  0  0  0  0  0  0  0  0  0  0
  174.8784  252.3533  204.6660 C   0  0  0  0  0  0  0  0  0  0  0  0
  174.7166  253.7588  204.1390 C   0  0  0  0  0  0  0  0  0  0  0  0
  174.2034  253.9392  203.0030 O   0  0  0  0  0  0  0  0  0  0  0  0
  175.0835  254.8880  204.9529 N   0  0  0  0  0  0  0  0  0  0  0  0
  175.4355  254.6876  205.9192 H   0  0  0  0  0  0  0  0  0  0  0  0
  174.7108  256.2649  204.5876 C   0  0  0  0  0  0  0  0  0  0  0  0
  175.9055  257.0663  204.1113 C   0  0  0  0  0  0  0  0  0  0  0  0
  175.8384  257.6823  203.0127 O   0  0  0  0  0  0  0  0  0  0  0  0
  177.1694  257.0347  204.8017 N   0  0  0  0  0  0  0  0  0  0  0  0
  178.0227  257.0078  204.1944 H   0  0  0  0  0  0  0  0  0  0  0  0
  177.3913  257.3693  206.2204 C   0  0  0  0  0  0  0  0  0  0  0  0
  177.3903  256.1327  207.0907 C   0  0  0  0  0  0  0  0  0  0  0  0
  177.6545  255.0119  206.5892 O   0  0  0  0  0  0  0  0  0  0  0  0
  176.9665  256.1889  208.4596 N   0  0  0  0  0  0  0  0  0  0  0  0
  177.8938  256.3605  209.5645 C   0  0  0  0  0  0  0  0  0  0  0  0
  177.1356  255.9208  210.8083 C   0  0  0  0  0  0  0  0  0  0  0  0
  175.6587  255.9525  210.4208 C   0  0  0  0  0  0  0  0  0  0  0  0
  175.6287  255.8126  208.8979 C   0  0  0  0  0  0  0  0  0  0  0  0
  175.3019  254.4027  208.4883 C   0  0  0  0  0  0  0  0  0  0  0  0
  176.1726  253.3731  208.8155 O   0  0  0  0  0  0  0  0  0  0  0  0
  174.2590  254.1601  207.8235 O   0  0  0  0  0  0  0  0  0  0  0  0
  175.9786  252.4193  208.5361 H   0  0  0  0  0  0  0  0  0  0  0  0
  178.6583  258.2306  206.3983 C   0  0  0  0  0  0  0  0  0  0  0  0
  178.4992  259.8594  205.5908 S   0  0  0  0  0  0  0  0  0  0  0  0
  177.3623  260.2533  206.3117 H   0  0  0  0  0  0  0  0  0  0  0  0
  174.0255  256.9553  205.7867 C   0  0  0  0  0  0  0  0  0  0  0  0
  172.5248  256.9930  205.6540 C   0  0  0  0  0  0  0  0  0  0  0  0
  171.7253  256.0135  205.1106 C   0  0  0  0  0  0  0  0  0  0  0  0
  170.4429  256.4252  205.1345 N   0  0  0  0  0  0  0  0  0  0  0  0
  170.4971  257.6571  205.6848 C   0  0  0  0  0  0  0  0  0  0  0  0
  171.7476  258.0306  206.0117 N   0  0  0  0  0  0  0  0  0  0  0  0
  172.0498  258.9471  206.4105 H   0  0  0  0  0  0  0  0  0  0  0  0
  176.3493  252.1078  205.0641 C   0  0  0  0  0  0  0  0  0  0  0  0
  176.4906  251.0304  206.1529 C   0  0  0  0  0  0  0  0  0  0  0  0
  177.8900  250.9917  206.7018 C   0  0  0  0  0  0  0  0  0  0  0  0
  178.2643  251.8661  207.5282 O   0  0  0  0  0  0  0  0  0  0  0  0
  178.8034  249.9747  206.2851 N   0  0  0  0  0  0  0  0  0  0  0  0
  179.7605  249.9230  206.7000 H   0  0  0  0  0  0  0  0  0  0  0  0
  178.5384  249.2768  205.5561 H   0  0  0  0  0  0  0  0  0  0  0  0
  173.6183  251.0151  208.3789 C   0  0  0  0  0  0  0  0  0  0  0  0
  173.8054  250.0116  209.5298 C   0  0  0  0  0  0  0  0  0  0  0  0
  175.2603  249.5309  209.6776 C   0  0  0  0  0  0  0  0  0  0  0  0
  175.4780  248.0256  209.4168 C   0  0  0  0  0  0  0  0  0  0  0  0
  174.7954  247.1795  210.3987 N   0  0  0  0  0  0  0  0  0  0  0  0
  173.7623  247.2346  210.2332 H   0  0  0  0  0  0  0  0  0  0  0  0
  174.9864  247.5425  211.3552 H   0  0  0  0  0  0  0  0  0  0  0  0
  173.0473  245.4584  206.3535 C   0  0  0  0  0  0  0  0  0  0  0  0
  173.8315  245.8322  205.4410 O   0  0  0  0  0  0  0  0  0  0  0  0
  171.6689  245.8360  206.3102 N   0  0  0  0  0  0  0  0  0  0  0  0
  170.9469  245.1478  206.6274 H   0  0  0  0  0  0  0  0  0  0  0  0
  173.5899  244.8046  207.5906 C   0  0  0  0  0  0  0  0  0  0  0  0
  172.0059  244.8423  209.5865 C   0  0  0  0  0  0  0  0  0  0  0  0
  171.0812  245.5554  210.0741 O   0  0  0  0  0  0  0  0  0  0  0  0
  172.9966  245.4691  208.7541 N   0  0  0  0  0  0  0  0  0  0  0  0
  173.0399  246.5103  208.7924 H   0  0  0  0  0  0  0  0  0  0  0  0
  172.1144  243.3797  209.9629 C   0  0  0  0  0  0  0  0  0  0  0  0
  170.6921  241.3063  210.2743 C   0  0  0  0  0  0  0  0  0  0  0  0
  171.6704  240.5546  210.0081 O   0  0  0  0  0  0  0  0  0  0  0  0
  170.8027  242.7212  210.0483 N   0  0  0  0  0  0  0  0  0  0  0  0
  169.9212  243.2755  209.9922 H   0  0  0  0  0  0  0  0  0  0  0  0
  169.4146  240.7402  210.8476 C   0  0  0  0  0  0  0  0  0  0  0  0
  168.6157  240.0608  209.7360 C   0  0  0  0  0  0  0  0  0  0  0  0
  168.9151  242.3107  212.7995 C   0  0  0  0  0  0  0  0  0  0  0  0
  169.8385  241.7995  213.4892 O   0  0  0  0  0  0  0  0  0  0  0  0
  168.5934  241.7712  211.5057 N   0  0  0  0  0  0  0  0  0  0  0  0
  167.7642  242.1770  211.0224 H   0  0  0  0  0  0  0  0  0  0  0  0
  168.1497  243.4918  213.3435 C   0  0  0  0  0  0  0  0  0  0  0  0
  168.0048  244.6147  215.6138 C   0  0  0  0  0  0  0  0  0  0  0  0
  166.9545  244.7780  216.2955 O   0  0  0  0  0  0  0  0  0  0  0  0
  168.1278  243.4363  214.8088 N   0  0  0  0  0  0  0  0  0  0  0  0
  167.7760  242.5579  215.2405 H   0  0  0  0  0  0  0  0  0  0  0  0
  169.1501  245.5950  215.8055 C   0  0  0  0  0  0  0  0  0  0  0  0
  169.7195  246.9702  213.7803 C   0  0  0  0  0  0  0  0  0  0  0  0
  169.6606  246.0712  212.8967 O   0  0  0  0  0  0  0  0  0  0  0  0
  168.9888  246.8078  215.0005 N   0  0  0  0  0  0  0  0  0  0  0  0
  168.3115  247.5498  215.2783 H   0  0  0  0  0  0  0  0  0  0  0  0
  171.1068  248.6463  214.8966 N   0  0  0  0  0  0  0  0  0  0  0  0
  170.6290  248.1661  213.5929 C   0  0  0  0  0  0  0  0  0  0  0  0
  171.6230  249.5449  214.7472 H   0  0  0  0  0  0  0  0  0  0  0  0
  170.2783  248.8900  215.4848 H   0  0  0  0  0  0  0  0  0  0  0  0
  171.8051  247.8472  212.6433 C   0  0  0  0  0  0  0  0  0  0  0  0
  171.3995  248.1005  211.3180 O   0  0  0  0  0  0  0  0  0  0  0  0
  173.0586  248.6760  212.9576 C   0  0  0  0  0  0  0  0  0  0  0  0
  172.0585  247.6562  210.7259 H   0  0  0  0  0  0  0  0  0  0  0  0
  170.5117  244.9320  215.5339 C   0  0  0  0  0  0  0  0  0  0  0  0
  171.6658  245.5047  216.3759 C   0  0  0  0  0  0  0  0  0  0  0  0
  172.8974  245.7752  215.5489 C   0  0  0  0  0  0  0  0  0  0  0  0
  173.1402  245.1155  214.5047 O   0  0  0  0  0  0  0  0  0  0  0  0
  173.7986  246.8074  215.9448 N   0  0  0  0  0  0  0  0  0  0  0  0
  174.6435  247.0167  215.3718 H   0  0  0  0  0  0  0  0  0  0  0  0
  173.5974  247.3979  216.7852 H   0  0  0  0  0  0  0  0  0  0  0  0
  166.7144  243.6767  212.7656 C   0  0  0  0  0  0  0  0  0  0  0  0
  166.4788  244.8426  211.7827 C   0  0  0  0  0  0  0  0  0  0  0  0
  167.4598  244.9748  210.6403 C   0  0  0  0  0  0  0  0  0  0  0  0
  167.6803  243.9655  209.9248 O   0  0  0  0  0  0  0  0  0  0  0  0
  168.1812  246.1803  210.3655 N   0  0  0  0  0  0  0  0  0  0  0  0
  168.1887  246.9929  211.0157 H   0  0  0  0  0  0  0  0  0  0  0  0
  168.8245  246.2226  209.5399 H   0  0  0  0  0  0  0  0  0  0  0  0
  172.8738  243.2537  211.3001 C   0  0  0  0  0  0  0  0  0  0  0  0
  173.5278  244.4561  211.6206 O   0  0  0  0  0  0  0  0  0  0  0  0
  172.8673  245.0130  212.1159 H   0  0  0  0  0  0  0  0  0  0  0  0
  175.1274  244.8668  207.6468 C   0  0  0  0  0  0  0  0  0  0  0  0
  175.6500  244.0076  208.7631 C   0  0  0  0  0  0  0  0  0  0  0  0
  175.5284  242.6335  208.8581 C   0  0  0  0  0  0  0  0  0  0  0  0
  176.0625  242.2244  210.0275 N   0  0  0  0  0  0  0  0  0  0  0  0
  176.4978  243.3636  210.6142 C   0  0  0  0  0  0  0  0  0  0  0  0
  176.2679  244.4610  209.8639 N   0  0  0  0  0  0  0  0  0  0  0  0
  176.4914  245.4484  210.1138 H   0  0  0  0  0  0  0  0  0  0  0  0
 95 96  1  0  0  0
 96 91  1  0  0  0
 91 92  2  0  0  0
 91 93  1  0  0  0
 93 90  1  0  0  0
 90103  1  0  0  0
103104  1  0  0  0
104105  1  0  0  0
105106  2  0  0  0
105107  1  0  0  0
 90 86  1  0  0  0
 86 87  2  0  0  0
 86 88  1  0  0  0
 88 85  1  0  0  0
 85110  1  0  0  0
110111  1  0  0  0
111112  1  0  0  0
112113  2  0  0  0
112114  1  0  0  0
 85 81  1  0  0  0
 81 82  2  0  0  0
 81 83  1  0  0  0
 83 79  1  0  0  0
 79 80  1  0  0  0
 79 75  1  0  0  0
 75 76  2  0  0  0
 75 77  1  0  0  0
 77 74  1  0  0  0
 74117  1  0  0  0
117118  1  0  0  0
 74 70  1  0  0  0
 70 71  2  0  0  0
 70 72  1  0  0  0
 72 69  1  0  0  0
 69120  1  0  0  0
120121  1  0  0  0
121122  2  0  0  0
122123  1  0  0  0
123124  2  0  0  0
124125  1  0  0  0
 69 65  1  0  0  0
 65 66  2  0  0  0
 65 67  1  0  0  0
 67  1  1  0  0  0
  1  2  1  0  0  0
  2  3  2  0  0  0
  3  4  1  0  0  0
  4  5  2  0  0  0
  5  6  1  0  0  0
  5  7  1  0  0  0
  7  8  2  0  0  0
  1 10  1  0  0  0
 10 11  2  0  0  0
 10 12  1  0  0  0
 12 14  1  0  0  0
 14 58  1  0  0  0
 58 59  1  0  0  0
 59 60  1  0  0  0
 60 61  1  0  0  0
 61 62  1  0  0  0
 14 15  1  0  0  0
 15 16  2  0  0  0
 15 17  1  0  0  0
 17 19  1  0  0  0
 19 51  1  0  0  0
 51 52  1  0  0  0
 52 53  1  0  0  0
 53 54  2  0  0  0
 53 55  1  0  0  0
 19 20  1  0  0  0
 20 21  2  0  0  0
 20 22  1  0  0  0
 22 24  1  0  0  0
 24 44  1  0  0  0
 44 45  1  0  0  0
 45 46  2  0  0  0
 46 47  1  0  0  0
 47 48  2  0  0  0
 48 49  1  0  0  0
 24 25  1  0  0  0
 25 26  2  0  0  0
 25 27  1  0  0  0
 27 29  1  0  0  0
 29 41  1  0  0  0
 41 42  1  0  0  0
 29 30  1  0  0  0
 30 31  2  0  0  0
 30 32  1  0  0  0
 32 33  1  0  0  0
 33 34  1  0  0  0
 34 35  1  0  0  0
 35 36  1  0  0  0
 36 37  1  0  0  0
 37 38  1  0  0  0
 37 39  2  0  0  0
 96 99  1  0  0  0
 99100  1  0  0  0
 99101  1  0  0  0
125121  1  0  0  0
  8  2  1  0  0  0
 49 45  1  0  0  0
 36 32  1  0  0  0
 95 97  1  0  0  0
 95 98  1  0  0  0
 93 94  1  0  0  0
107108  1  0  0  0
107109  1  0  0  0
 88 89  1  0  0  0
114115  1  0  0  0
114116  1  0  0  0
 83 84  1  0  0  0
 77 78  1  0  0  0
118119  1  0  0  0
 72 73  1  0  0  0
125126  1  0  0  0
 67 68  1  0  0  0
  6  9  1  0  0  0
 12 13  1  0  0  0
 62 63  1  0  0  0
 62 64  1  0  0  0
 17 18  1  0  0  0
 55 56  1  0  0  0
 55 57  1  0  0  0
 22 23  1  0  0  0
 49 50  1  0  0  0
 27 28  1  0  0  0
 42 43  1  0  0  0
 38 40  1  0  0  0
100102  1  0  0  0
M  END
> <minimizedAffinity>
-8.41973

$$$$



126129  0  0  0  0  0  0  0  0999 V2000
  173.9702  246.6802  209.2741 C   0  0  0  0  0  0  0  0  0  0  0  0
  173.9978  245.7921  208.0518 C   0  0  0  0  0  0  0  0  0  0  0  0
  173.1222  246.0167  206.9741 C   0  0  0  0  0  0  0  0  0  0  0  0
  173.1912  245.2192  205.8294 C   0  0  0  0  0  0  0  0  0  0  0  0
  174.1207  244.1744  205.7523 C   0  0  0  0  0  0  0  0  0  0  0  0
  174.1837  243.3857  204.6042 O   0  0  0  0  0  0  0  0  0  0  0  0
  174.9850  243.9335  206.8271 C   0  0  0  0  0  0  0  0  0  0  0  0
  174.9287  244.7446  207.9653 C   0  0  0  0  0  0  0  0  0  0  0  0
  174.8169  242.5969  204.5433 H   0  0  0  0  0  0  0  0  0  0  0  0
  172.6810  246.5028  210.0329 C   0  0  0  0  0  0  0  0  0  0  0  0
  172.5461  245.5556  210.8514 O   0  0  0  0  0  0  0  0  0  0  0  0
  171.5831  247.3930  209.7903 N   0  0  0  0  0  0  0  0  0  0  0  0
  171.8126  248.4098  209.7022 H   0  0  0  0  0  0  0  0  0  0  0  0
  170.2657  246.9704  209.2873 C   0  0  0  0  0  0  0  0  0  0  0  0
  169.8170  247.9303  208.2108 C   0  0  0  0  0  0  0  0  0  0  0  0
  168.6782  247.8071  207.6756 O   0  0  0  0  0  0  0  0  0  0  0  0
  170.6991  248.9794  207.7881 N   0  0  0  0  0  0  0  0  0  0  0  0
  171.5324  249.1893  208.3839 H   0  0  0  0  0  0  0  0  0  0  0  0
  170.6956  249.4819  206.4094 C   0  0  0  0  0  0  0  0  0  0  0  0
  171.9183  250.3352  206.1726 C   0  0  0  0  0  0  0  0  0  0  0  0
  171.7770  251.5490  205.8676 O   0  0  0  0  0  0  0  0  0  0  0  0
  173.2360  249.7862  206.3580 N   0  0  0  0  0  0  0  0  0  0  0  0
  173.2993  248.7929  206.6851 H   0  0  0  0  0  0  0  0  0  0  0  0
  174.4371  250.6376  206.3876 C   0  0  0  0  0  0  0  0  0  0  0  0
  175.1526  250.6522  205.0518 C   0  0  0  0  0  0  0  0  0  0  0  0
  175.1640  249.6076  204.3453 O   0  0  0  0  0  0  0  0  0  0  0  0
  175.9435  251.7771  204.6225 N   0  0  0  0  0  0  0  0  0  0  0  0
  176.8435  251.5464  204.1385 H   0  0  0  0  0  0  0  0  0  0  0  0
  175.4736  253.1686  204.4928 C   0  0  0  0  0  0  0  0  0  0  0  0
  174.7270  253.3854  203.1957 C   0  0  0  0  0  0  0  0  0  0  0  0
  175.2992  253.9455  202.2281 O   0  0  0  0  0  0  0  0  0  0  0  0
  173.3302  253.0806  203.0835 N   0  0  0  0  0  0  0  0  0  0  0  0
  172.8396  251.8108  202.5767 C   0  0  0  0  0  0  0  0  0  0  0  0
  171.3856  252.0538  202.1998 C   0  0  0  0  0  0  0  0  0  0  0  0
  170.9787  253.3284  202.9361 C   0  0  0  0  0  0  0  0  0  0  0  0
  172.2813  254.0853  203.2013 C   0  0  0  0  0  0  0  0  0  0  0  0
  172.4788  255.1930  202.2031 C   0  0  0  0  0  0  0  0  0  0  0  0
  172.5055  254.8991  200.8473 O   0  0  0  0  0  0  0  0  0  0  0  0
  172.6512  256.3782  202.5956 O   0  0  0  0  0  0  0  0  0  0  0  0
  172.6522  255.6281  200.1599 H   0  0  0  0  0  0  0  0  0  0  0  0
  174.6657  253.6020  205.7330 C   0  0  0  0  0  0  0  0  0  0  0  0
  175.0257  255.3240  206.2185 S   0  0  0  0  0  0  0  0  0  0  0  0
  174.6485  255.8885  204.9911 H   0  0  0  0  0  0  0  0  0  0  0  0
  175.3819  250.1677  207.5148 C   0  0  0  0  0  0  0  0  0  0  0  0
  176.5988  251.0456  207.6551 C   0  0  0  0  0  0  0  0  0  0  0  0
  177.8904  250.7169  207.3119 C   0  0  0  0  0  0  0  0  0  0  0  0
  178.7050  251.7448  207.6188 N   0  0  0  0  0  0  0  0  0  0  0  0
  177.8846  252.6736  208.1549 C   0  0  0  0  0  0  0  0  0  0  0  0
  176.5988  252.2792  208.1905 N   0  0  0  0  0  0  0  0  0  0  0  0
  175.7883  252.8008  208.5925 H   0  0  0  0  0  0  0  0  0  0  0  0
  170.6787  248.3012  205.4154 C   0  0  0  0  0  0  0  0  0  0  0  0
  169.6987  248.5279  204.2516 C   0  0  0  0  0  0  0  0  0  0  0  0
  168.8284  247.3218  204.0303 C   0  0  0  0  0  0  0  0  0  0  0  0
  168.2015  247.1910  202.9451 O   0  0  0  0  0  0  0  0  0  0  0  0
  168.6990  246.3258  205.0468 N   0  0  0  0  0  0  0  0  0  0  0  0
  168.1294  245.4674  204.8749 H   0  0  0  0  0  0  0  0  0  0  0  0
  169.1577  246.4409  205.9769 H   0  0  0  0  0  0  0  0  0  0  0  0
  169.2076  246.7954  210.4063 C   0  0  0  0  0  0  0  0  0  0  0  0
  168.9701  248.0913  211.2006 C   0  0  0  0  0  0  0  0  0  0  0  0
  168.8375  247.8520  212.7155 C   0  0  0  0  0  0  0  0  0  0  0  0
  167.4685  247.3043  213.1704 C   0  0  0  0  0  0  0  0  0  0  0  0
  166.3458  247.9789  212.5144 N   0  0  0  0  0  0  0  0  0  0  0  0
  166.3196  247.6912  211.5072 H   0  0  0  0  0  0  0  0  0  0  0  0
  166.4967  249.0081  212.5497 H   0  0  0  0  0  0  0  0  0  0  0  0
  175.3938  247.2335  211.2677 C   0  0  0  0  0  0  0  0  0  0  0  0
  175.3876  248.4879  211.1495 O   0  0  0  0  0  0  0  0  0  0  0  0
  175.1281  246.4075  210.1312 N   0  0  0  0  0  0  0  0  0  0  0  0
  175.6600  245.5126  210.0224 H   0  0  0  0  0  0  0  0  0  0  0  0
  175.4648  246.6066  212.6293 C   0  0  0  0  0  0  0  0  0  0  0  0
  173.4097  247.2999  213.9671 C   0  0  0  0  0  0  0  0  0  0  0  0
  172.6864  248.3181  214.1707 O   0  0  0  0  0  0  0  0  0  0  0  0
  174.7794  247.4920  213.5744 N   0  0  0  0  0  0  0  0  0  0  0  0
  175.1689  248.4496  213.7118 H   0  0  0  0  0  0  0  0  0  0  0  0
  172.8613  245.9142  214.2348 C   0  0  0  0  0  0  0  0  0  0  0  0
  171.0229  244.4094  213.3544 C   0  0  0  0  0  0  0  0  0  0  0  0
  171.8380  243.4628  213.1746 O   0  0  0  0  0  0  0  0  0  0  0  0
  171.5177  245.7213  213.6698 N   0  0  0  0  0  0  0  0  0  0  0  0
  170.8758  246.5308  213.5280 H   0  0  0  0  0  0  0  0  0  0  0  0
  169.5334  244.1761  213.2636 C   0  0  0  0  0  0  0  0  0  0  0  0
  168.9922  243.8028  214.6432 C   0  0  0  0  0  0  0  0  0  0  0  0
  168.0352  243.2132  211.4322 C   0  0  0  0  0  0  0  0  0  0  0  0
  167.1806  244.1236  211.6078 O   0  0  0  0  0  0  0  0  0  0  0  0
  169.1911  243.1304  212.2839 N   0  0  0  0  0  0  0  0  0  0  0  0
  169.8142  242.3063  212.1484 H   0  0  0  0  0  0  0  0  0  0  0  0
  167.8339  242.2109  210.3225 C   0  0  0  0  0  0  0  0  0  0  0  0
  169.6621  240.6936  209.4330 C   0  0  0  0  0  0  0  0  0  0  0  0
  169.7261  240.2129  208.2671 O   0  0  0  0  0  0  0  0  0  0  0  0
  169.0983  241.9983  209.6107 N   0  0  0  0  0  0  0  0  0  0  0  0
  169.3551  242.7015  208.8887 H   0  0  0  0  0  0  0  0  0  0  0  0
  170.3310  239.9326  210.5657 C   0  0  0  0  0  0  0  0  0  0  0  0
  172.8183  240.0037  210.9200 C   0  0  0  0  0  0  0  0  0  0  0  0
  172.8493  239.9456  212.1803 O   0  0  0  0  0  0  0  0  0  0  0  0
  171.6824  239.4871  210.2186 N   0  0  0  0  0  0  0  0  0  0  0  0
  171.8362  238.7590  209.4888 H   0  0  0  0  0  0  0  0  0  0  0  0
  173.9743  240.2115  208.7753 N   0  0  0  0  0  0  0  0  0  0  0  0
  173.9286  240.6985  210.1605 C   0  0  0  0  0  0  0  0  0  0  0  0
  174.8266  240.6087  208.3147 H   0  0  0  0  0  0  0  0  0  0  0  0
  174.1176  239.1766  208.7915 H   0  0  0  0  0  0  0  0  0  0  0  0
  173.7835  242.2357  210.2139 C   0  0  0  0  0  0  0  0  0  0  0  0
  172.4862  242.5534  210.6623 O   0  0  0  0  0  0  0  0  0  0  0  0
  174.8160  242.8939  211.1400 C   0  0  0  0  0  0  0  0  0  0  0  0
  172.3337  243.5087  210.4467 H   0  0  0  0  0  0  0  0  0  0  0  0
  169.4671  238.7506  211.0387 C   0  0  0  0  0  0  0  0  0  0  0  0
  170.0611  237.3697  210.7083 C   0  0  0  0  0  0  0  0  0  0  0  0
  169.5162  236.8064  209.4200 C   0  0  0  0  0  0  0  0  0  0  0  0
  168.5165  236.0415  209.4133 O   0  0  0  0  0  0  0  0  0  0  0  0
  170.1321  237.1566  208.1821 N   0  0  0  0  0  0  0  0  0  0  0  0
  169.7537  236.7891  207.2834 H   0  0  0  0  0  0  0  0  0  0  0  0
  170.9381  237.8239  208.1574 H   0  0  0  0  0  0  0  0  0  0  0  0
  166.6782  242.5410  209.3306 C   0  0  0  0  0  0  0  0  0  0  0  0
  166.5838  241.7110  208.0333 C   0  0  0  0  0  0  0  0  0  0  0  0
  166.2938  242.4733  206.7606 C   0  0  0  0  0  0  0  0  0  0  0  0
  166.1883  241.8253  205.6891 O   0  0  0  0  0  0  0  0  0  0  0  0
  166.1797  243.8994  206.7130 N   0  0  0  0  0  0  0  0  0  0  0  0
  166.4317  244.5118  207.5158 H   0  0  0  0  0  0  0  0  0  0  0  0
  165.9456  244.3707  205.8072 H   0  0  0  0  0  0  0  0  0  0  0  0
  172.8536  245.6554  215.7558 C   0  0  0  0  0  0  0  0  0  0  0  0
  173.7436  246.5201  216.4162 O   0  0  0  0  0  0  0  0  0  0  0  0
  173.2335  247.3519  216.6147 H   0  0  0  0  0  0  0  0  0  0  0  0
  176.9180  246.3514  213.0699 C   0  0  0  0  0  0  0  0  0  0  0  0
  176.9680  245.9486  214.5166 C   0  0  0  0  0  0  0  0  0  0  0  0
  176.4538  244.7835  215.0554 C   0  0  0  0  0  0  0  0  0  0  0  0
  176.6301  244.8022  216.3928 N   0  0  0  0  0  0  0  0  0  0  0  0
  177.2502  245.9808  216.6330 C   0  0  0  0  0  0  0  0  0  0  0  0
  177.4757  246.6934  215.5099 N   0  0  0  0  0  0  0  0  0  0  0  0
  177.9153  247.6367  215.4444 H   0  0  0  0  0  0  0  0  0  0  0  0
 95 96  1  0  0  0
 96 91  1  0  0  0
 91 92  2  0  0  0
 91 93  1  0  0  0
 93 90  1  0  0  0
 90103  1  0  0  0
103104  1  0  0  0
104105  1  0  0  0
105106  2  0  0  0
105107  1  0  0  0
 90 86  1  0  0  0
 86 87  2  0  0  0
 86 88  1  0  0  0
 88 85  1  0  0  0
 85110  1  0  0  0
110111  1  0  0  0
111112  1  0  0  0
112113  2  0  0  0
112114  1  0  0  0
 85 81  1  0  0  0
 81 82  2  0  0  0
 81 83  1  0  0  0
 83 79  1  0  0  0
 79 80  1  0  0  0
 79 75  1  0  0  0
 75 76  2  0  0  0
 75 77  1  0  0  0
 77 74  1  0  0  0
 74117  1  0  0  0
117118  1  0  0  0
 74 70  1  0  0  0
 70 71  2  0  0  0
 70 72  1  0  0  0
 72 69  1  0  0  0
 69120  1  0  0  0
120121  1  0  0  0
121122  2  0  0  0
122123  1  0  0  0
123124  2  0  0  0
124125  1  0  0  0
 69 65  1  0  0  0
 65 66  2  0  0  0
 65 67  1  0  0  0
 67  1  1  0  0  0
  1  2  1  0  0  0
  2  3  2  0  0  0
  3  4  1  0  0  0
  4  5  2  0  0  0
  5  6  1  0  0  0
  5  7  1  0  0  0
  7  8  2  0  0  0
  1 10  1  0  0  0
 10 11  2  0  0  0
 10 12  1  0  0  0
 12 14  1  0  0  0
 14 58  1  0  0  0
 58 59  1  0  0  0
 59 60  1  0  0  0
 60 61  1  0  0  0
 61 62  1  0  0  0
 14 15  1  0  0  0
 15 16  2  0  0  0
 15 17  1  0  0  0
 17 19  1  0  0  0
 19 51  1  0  0  0
 51 52  1  0  0  0
 52 53  1  0  0  0
 53 54  2  0  0  0
 53 55  1  0  0  0
 19 20  1  0  0  0
 20 21  2  0  0  0
 20 22  1  0  0  0
 22 24  1  0  0  0
 24 44  1  0  0  0
 44 45  1  0  0  0
 45 46  2  0  0  0
 46 47  1  0  0  0
 47 48  2  0  0  0
 48 49  1  0  0  0
 24 25  1  0  0  0
 25 26  2  0  0  0
 25 27  1  0  0  0
 27 29  1  0  0  0
 29 41  1  0  0  0
 41 42  1  0  0  0
 29 30  1  0  0  0
 30 31  2  0  0  0
 30 32  1  0  0  0
 32 33  1  0  0  0
 33 34  1  0  0  0
 34 35  1  0  0  0
 35 36  1  0  0  0
 36 37  1  0  0  0
 37 38  1  0  0  0
 37 39  2  0  0  0
 96 99  1  0  0  0
 99100  1  0  0  0
 99101  1  0  0  0
125121  1  0  0  0
  8  2  1  0  0  0
 49 45  1  0  0  0
 36 32  1  0  0  0
 95 97  1  0  0  0
 95 98  1  0  0  0
 93 94  1  0  0  0
107108  1  0  0  0
107109  1  0  0  0
 88 89  1  0  0  0
114115  1  0  0  0
114116  1  0  0  0
 83 84  1  0  0  0
 77 78  1  0  0  0
118119  1  0  0  0
 72 73  1  0  0  0
125126  1  0  0  0
 67 68  1  0  0  0
  6  9  1  0  0  0
 12 13  1  0  0  0
 62 63  1  0  0  0
 62 64  1  0  0  0
 17 18  1  0  0  0
 55 56  1  0  0  0
 55 57  1  0  0  0
 22 23  1  0  0  0
 49 50  1  0  0  0
 27 28  1  0  0  0
 42 43  1  0  0  0
 38 40  1  0  0  0
100102  1  0  0  0
M  END
> <minimizedAffinity>
-8.35980

$$$$



126129  0  0  0  0  0  0  0  0999 V2000
  174.0783  247.4019  213.3590 C   0  0  0  0  0  0  0  0  0  0  0  0
  172.9572  247.0820  214.3205 C   0  0  0  0  0  0  0  0  0  0  0  0
  171.6757  247.6354  214.1477 C   0  0  0  0  0  0  0  0  0  0  0  0
  170.6353  247.2932  215.0148 C   0  0  0  0  0  0  0  0  0  0  0  0
  170.8642  246.4103  216.0776 C   0  0  0  0  0  0  0  0  0  0  0  0
  169.8185  246.0727  216.9360 O   0  0  0  0  0  0  0  0  0  0  0  0
  172.1408  245.8677  216.2666 C   0  0  0  0  0  0  0  0  0  0  0  0
  173.1776  246.1954  215.3866 C   0  0  0  0  0  0  0  0  0  0  0  0
  169.9705  245.4715  217.7375 H   0  0  0  0  0  0  0  0  0  0  0  0
  174.5979  246.1460  212.7094 C   0  0  0  0  0  0  0  0  0  0  0  0
  173.8128  245.2069  212.4142 O   0  0  0  0  0  0  0  0  0  0  0  0
  176.0033  245.9997  212.4640 N   0  0  0  0  0  0  0  0  0  0  0  0
  176.5040  246.8359  212.0839 H   0  0  0  0  0  0  0  0  0  0  0  0
  176.8425  244.9385  213.0444 C   0  0  0  0  0  0  0  0  0  0  0  0
  176.7760  243.7166  212.1590 C   0  0  0  0  0  0  0  0  0  0  0  0
  177.7439  242.9044  212.1131 O   0  0  0  0  0  0  0  0  0  0  0  0
  175.6088  243.4885  211.3572 N   0  0  0  0  0  0  0  0  0  0  0  0
  174.7506  244.0467  211.5703 H   0  0  0  0  0  0  0  0  0  0  0  0
  175.6866  242.8177  210.0545 C   0  0  0  0  0  0  0  0  0  0  0  0
  175.3281  241.3591  210.2076 C   0  0  0  0  0  0  0  0  0  0  0  0
  176.1702  240.5627  210.7005 O   0  0  0  0  0  0  0  0  0  0  0  0
  174.0126  240.8921  209.8560 N   0  0  0  0  0  0  0  0  0  0  0  0
  173.3242  241.6074  209.5212 H   0  0  0  0  0  0  0  0  0  0  0  0
  173.5403  239.5466  210.2229 C   0  0  0  0  0  0  0  0  0  0  0  0
  172.3055  239.1481  209.4400 C   0  0  0  0  0  0  0  0  0  0  0  0
  172.3165  238.0796  208.7699 O   0  0  0  0  0  0  0  0  0  0  0  0
  171.1648  240.0196  209.3191 N   0  0  0  0  0  0  0  0  0  0  0  0
  170.7104  240.0513  208.3756 H   0  0  0  0  0  0  0  0  0  0  0  0
  170.3885  240.5919  210.4344 C   0  0  0  0  0  0  0  0  0  0  0  0
  170.4011  242.1036  210.4032 C   0  0  0  0  0  0  0  0  0  0  0  0
  171.4792  242.7186  210.2110 O   0  0  0  0  0  0  0  0  0  0  0  0
  169.2254  242.8623  210.7178 N   0  0  0  0  0  0  0  0  0  0  0  0
  168.3044  243.3441  209.7031 C   0  0  0  0  0  0  0  0  0  0  0  0
  167.4913  244.4409  210.3747 C   0  0  0  0  0  0  0  0  0  0  0  0
  167.6691  244.2223  211.8757 C   0  0  0  0  0  0  0  0  0  0  0  0
  168.9820  243.4523  212.0278 C   0  0  0  0  0  0  0  0  0  0  0  0
  170.1064  244.3688  212.4255 C   0  0  0  0  0  0  0  0  0  0  0  0
  170.4180  245.4600  211.6273 O   0  0  0  0  0  0  0  0  0  0  0  0
  170.7837  244.1304  213.4613 O   0  0  0  0  0  0  0  0  0  0  0  0
  171.1808  246.0807  211.8693 H   0  0  0  0  0  0  0  0  0  0  0  0
  168.9644  240.0017  210.4827 C   0  0  0  0  0  0  0  0  0  0  0  0
  168.9677  238.2407  210.9612 S   0  0  0  0  0  0  0  0  0  0  0  0
  169.6101  238.4399  212.1921 H   0  0  0  0  0  0  0  0  0  0  0  0
  173.2746  239.4834  211.7426 C   0  0  0  0  0  0  0  0  0  0  0  0
  173.2986  238.0746  212.2774 C   0  0  0  0  0  0  0  0  0  0  0  0
  172.8907  237.6652  213.5264 C   0  0  0  0  0  0  0  0  0  0  0  0
  173.0991  236.3399  213.6476 N   0  0  0  0  0  0  0  0  0  0  0  0
  173.6426  235.9771  212.4659 C   0  0  0  0  0  0  0  0  0  0  0  0
  173.7763  237.0081  211.6119 N   0  0  0  0  0  0  0  0  0  0  0  0
  174.2039  236.9889  210.6595 H   0  0  0  0  0  0  0  0  0  0  0  0
  174.7251  243.4923  209.0530 C   0  0  0  0  0  0  0  0  0  0  0  0
  175.4405  243.9511  207.7709 C   0  0  0  0  0  0  0  0  0  0  0  0
  176.6243  244.8217  208.0900 C   0  0  0  0  0  0  0  0  0  0  0  0
  176.4474  245.9538  208.6142 O   0  0  0  0  0  0  0  0  0  0  0  0
  177.9501  244.3782  207.7940 N   0  0  0  0  0  0  0  0  0  0  0  0
  178.7735  244.9648  208.0562 H   0  0  0  0  0  0  0  0  0  0  0  0
  178.1197  243.4726  207.3040 H   0  0  0  0  0  0  0  0  0  0  0  0
  176.4981  244.6215  214.5220 C   0  0  0  0  0  0  0  0  0  0  0  0
  177.4822  245.2724  215.5092 C   0  0  0  0  0  0  0  0  0  0  0  0
  176.8845  246.4883  216.2400 C   0  0  0  0  0  0  0  0  0  0  0  0
  177.9119  247.3782  216.9705 C   0  0  0  0  0  0  0  0  0  0  0  0
  177.4827  247.7395  218.3237 N   0  0  0  0  0  0  0  0  0  0  0  0
  177.5298  246.8879  218.9325 H   0  0  0  0  0  0  0  0  0  0  0  0
  176.4926  248.0585  218.2952 H   0  0  0  0  0  0  0  0  0  0  0  0
  174.5136  248.7868  211.3096 C   0  0  0  0  0  0  0  0  0  0  0  0
  175.6858  249.1552  211.5882 O   0  0  0  0  0  0  0  0  0  0  0  0
  173.6291  248.3688  212.3525 N   0  0  0  0  0  0  0  0  0  0  0  0
  172.6157  248.6222  212.2865 H   0  0  0  0  0  0  0  0  0  0  0  0
  174.1102  248.5793  209.8791 C   0  0  0  0  0  0  0  0  0  0  0  0
  172.6691  246.7520  208.8407 C   0  0  0  0  0  0  0  0  0  0  0  0
  171.9469  245.7737  209.1909 O   0  0  0  0  0  0  0  0  0  0  0  0
  173.7324  247.1734  209.7120 N   0  0  0  0  0  0  0  0  0  0  0  0
  174.0039  246.5053  210.4653 H   0  0  0  0  0  0  0  0  0  0  0  0
  172.4731  247.3916  207.4824 C   0  0  0  0  0  0  0  0  0  0  0  0
  170.6923  248.4912  206.0544 C   0  0  0  0  0  0  0  0  0  0  0  0
  171.5569  249.1868  205.4529 O   0  0  0  0  0  0  0  0  0  0  0  0
  171.0699  247.7463  207.2240 N   0  0  0  0  0  0  0  0  0  0  0  0
  170.3106  247.4247  207.8624 H   0  0  0  0  0  0  0  0  0  0  0  0
  169.2715  248.4148  205.5480 C   0  0  0  0  0  0  0  0  0  0  0  0
  168.4397  247.5514  206.4957 C   0  0  0  0  0  0  0  0  0  0  0  0
  168.0783  248.1324  203.3069 C   0  0  0  0  0  0  0  0  0  0  0  0
  167.0420  248.6972  203.7508 O   0  0  0  0  0  0  0  0  0  0  0  0
  169.1957  247.8814  204.1768 N   0  0  0  0  0  0  0  0  0  0  0  0
  169.9861  247.3327  203.7768 H   0  0  0  0  0  0  0  0  0  0  0  0
  168.1351  247.7207  201.8564 C   0  0  0  0  0  0  0  0  0  0  0  0
  168.2095  245.5643  200.5222 C   0  0  0  0  0  0  0  0  0  0  0  0
  169.2376  245.0493  200.0003 O   0  0  0  0  0  0  0  0  0  0  0  0
  168.3460  246.2727  201.7597 N   0  0  0  0  0  0  0  0  0  0  0  0
  168.9903  245.8442  202.4546 H   0  0  0  0  0  0  0  0  0  0  0  0
  166.8567  245.2700  199.8954 C   0  0  0  0  0  0  0  0  0  0  0  0
  165.5535  245.0726  202.0354 C   0  0  0  0  0  0  0  0  0  0  0  0
  165.0057  246.2094  202.0496 O   0  0  0  0  0  0  0  0  0  0  0  0
  165.9794  244.5111  200.7894 N   0  0  0  0  0  0  0  0  0  0  0  0
  165.6176  243.5725  200.5162 H   0  0  0  0  0  0  0  0  0  0  0  0
  166.8830  243.3321  203.1230 N   0  0  0  0  0  0  0  0  0  0  0  0
  165.8440  244.3493  203.3334 C   0  0  0  0  0  0  0  0  0  0  0  0
  166.9693  242.7640  203.9983 H   0  0  0  0  0  0  0  0  0  0  0  0
  166.5539  242.6686  202.3860 H   0  0  0  0  0  0  0  0  0  0  0  0
  166.2352  245.3310  204.4604 C   0  0  0  0  0  0  0  0  0  0  0  0
  165.2204  246.2996  204.5905 O   0  0  0  0  0  0  0  0  0  0  0  0
  166.4420  244.6282  205.8096 C   0  0  0  0  0  0  0  0  0  0  0  0
  165.6009  247.0448  205.1217 H   0  0  0  0  0  0  0  0  0  0  0  0
  167.0060  244.5600  198.5387 C   0  0  0  0  0  0  0  0  0  0  0  0
  166.8134  243.0344  198.6062 C   0  0  0  0  0  0  0  0  0  0  0  0
  168.0570  242.2828  198.2030 C   0  0  0  0  0  0  0  0  0  0  0  0
  168.1828  241.8018  197.0466 O   0  0  0  0  0  0  0  0  0  0  0  0
  169.1197  242.1251  199.1412 N   0  0  0  0  0  0  0  0  0  0  0  0
  169.9919  241.6240  198.8691 H   0  0  0  0  0  0  0  0  0  0  0  0
  169.0570  242.5518  200.0949 H   0  0  0  0  0  0  0  0  0  0  0  0
  169.1658  248.4992  200.9847 C   0  0  0  0  0  0  0  0  0  0  0  0
  168.6843  249.0623  199.6312 C   0  0  0  0  0  0  0  0  0  0  0  0
  168.1909  250.4911  199.6285 C   0  0  0  0  0  0  0  0  0  0  0  0
  168.9905  251.3967  199.2825 O   0  0  0  0  0  0  0  0  0  0  0  0
  166.8728  250.8632  200.0447 N   0  0  0  0  0  0  0  0  0  0  0  0
  166.2210  250.1995  200.5115 H   0  0  0  0  0  0  0  0  0  0  0  0
  166.5761  251.8664  199.9909 H   0  0  0  0  0  0  0  0  0  0  0  0
  173.0026  246.4389  206.3904 C   0  0  0  0  0  0  0  0  0  0  0  0
  173.8077  247.1306  205.4686 O   0  0  0  0  0  0  0  0  0  0  0  0
  174.7316  247.1234  205.8401 H   0  0  0  0  0  0  0  0  0  0  0  0
  175.2361  248.9657  208.9023 C   0  0  0  0  0  0  0  0  0  0  0  0
  174.8494  250.1787  208.1044 C   0  0  0  0  0  0  0  0  0  0  0  0
  174.7906  250.2610  206.7253 C   0  0  0  0  0  0  0  0  0  0  0  0
  174.4687  251.5231  206.3734 N   0  0  0  0  0  0  0  0  0  0  0  0
  174.3381  252.1768  207.5511 C   0  0  0  0  0  0  0  0  0  0  0  0
  174.5552  251.3818  208.6192 N   0  0  0  0  0  0  0  0  0  0  0  0
  174.5348  251.6626  209.6233 H   0  0  0  0  0  0  0  0  0  0  0  0
 95 96  1  0  0  0
 96 91  1  0  0  0
 91 92  2  0  0  0
 91 93  1  0  0  0
 93 90  1  0  0  0
 90103  1  0  0  0
103104  1  0  0  0
104105  1  0  0  0
105106  2  0  0  0
105107  1  0  0  0
 90 86  1  0  0  0
 86 87  2  0  0  0
 86 88  1  0  0  0
 88 85  1  0  0  0
 85110  1  0  0  0
110111  1  0  0  0
111112  1  0  0  0
112113  2  0  0  0
112114  1  0  0  0
 85 81  1  0  0  0
 81 82  2  0  0  0
 81 83  1  0  0  0
 83 79  1  0  0  0
 79 80  1  0  0  0
 79 75  1  0  0  0
 75 76  2  0  0  0
 75 77  1  0  0  0
 77 74  1  0  0  0
 74117  1  0  0  0
117118  1  0  0  0
 74 70  1  0  0  0
 70 71  2  0  0  0
 70 72  1  0  0  0
 72 69  1  0  0  0
 69120  1  0  0  0
120121  1  0  0  0
121122  2  0  0  0
122123  1  0  0  0
123124  2  0  0  0
124125  1  0  0  0
 69 65  1  0  0  0
 65 66  2  0  0  0
 65 67  1  0  0  0
 67  1  1  0  0  0
  1  2  1  0  0  0
  2  3  2  0  0  0
  3  4  1  0  0  0
  4  5  2  0  0  0
  5  6  1  0  0  0
  5  7  1  0  0  0
  7  8  2  0  0  0
  1 10  1  0  0  0
 10 11  2  0  0  0
 10 12  1  0  0  0
 12 14  1  0  0  0
 14 58  1  0  0  0
 58 59  1  0  0  0
 59 60  1  0  0  0
 60 61  1  0  0  0
 61 62  1  0  0  0
 14 15  1  0  0  0
 15 16  2  0  0  0
 15 17  1  0  0  0
 17 19  1  0  0  0
 19 51  1  0  0  0
 51 52  1  0  0  0
 52 53  1  0  0  0
 53 54  2  0  0  0
 53 55  1  0  0  0
 19 20  1  0  0  0
 20 21  2  0  0  0
 20 22  1  0  0  0
 22 24  1  0  0  0
 24 44  1  0  0  0
 44 45  1  0  0  0
 45 46  2  0  0  0
 46 47  1  0  0  0
 47 48  2  0  0  0
 48 49  1  0  0  0
 24 25  1  0  0  0
 25 26  2  0  0  0
 25 27  1  0  0  0
 27 29  1  0  0  0
 29 41  1  0  0  0
 41 42  1  0  0  0
 29 30  1  0  0  0
 30 31  2  0  0  0
 30 32  1  0  0  0
 32 33  1  0  0  0
 33 34  1  0  0  0
 34 35  1  0  0  0
 35 36  1  0  0  0
 36 37  1  0  0  0
 37 38  1  0  0  0
 37 39  2  0  0  0
 96 99  1  0  0  0
 99100  1  0  0  0
 99101  1  0  0  0
125121  1  0  0  0
  8  2  1  0  0  0
 49 45  1  0  0  0
 36 32  1  0  0  0
 95 97  1  0  0  0
 95 98  1  0  0  0
 93 94  1  0  0  0
107108  1  0  0  0
107109  1  0  0  0
 88 89  1  0  0  0
114115  1  0  0  0
114116  1  0  0  0
 83 84  1  0  0  0
 77 78  1  0  0  0
118119  1  0  0  0
 72 73  1  0  0  0
125126  1  0  0  0
 67 68  1  0  0  0
  6  9  1  0  0  0
 12 13  1  0  0  0
 62 63  1  0  0  0
 62 64  1  0  0  0
 17 18  1  0  0  0
 55 56  1  0  0  0
 55 57  1  0  0  0
 22 23  1  0  0  0
 49 50  1  0  0  0
 27 28  1  0  0  0
 42 43  1  0  0  0
 38 40  1  0  0  0
100102  1  0  0  0
M  END
> <minimizedAffinity>
-8.33715

$$$$



126129  0  0  0  0  0  0  0  0999 V2000
  170.7901  247.0798  212.9292 C   0  0  0  0  0  0  0  0  0  0  0  0
  170.2389  247.2653  214.3240 C   0  0  0  0  0  0  0  0  0  0  0  0
  170.5026  246.3259  215.3372 C   0  0  0  0  0  0  0  0  0  0  0  0
  170.0285  246.5340  216.6346 C   0  0  0  0  0  0  0  0  0  0  0  0
  169.2683  247.6715  216.9340 C   0  0  0  0  0  0  0  0  0  0  0  0
  168.8020  247.8717  218.2328 O   0  0  0  0  0  0  0  0  0  0  0  0
  168.9874  248.6034  215.9277 C   0  0  0  0  0  0  0  0  0  0  0  0
  169.4787  248.4044  214.6332 C   0  0  0  0  0  0  0  0  0  0  0  0
  168.2131  248.6636  218.4629 H   0  0  0  0  0  0  0  0  0  0  0  0
  169.8850  246.1957  212.1116 C   0  0  0  0  0  0  0  0  0  0  0  0
  168.6550  246.4492  212.0211 O   0  0  0  0  0  0  0  0  0  0  0  0
  170.4191  245.0318  211.4661 N   0  0  0  0  0  0  0  0  0  0  0  0
  171.3436  245.1410  210.9888 H   0  0  0  0  0  0  0  0  0  0  0  0
  169.9797  243.6537  211.7404 C   0  0  0  0  0  0  0  0  0  0  0  0
  171.0083  242.6902  211.1972 C   0  0  0  0  0  0  0  0  0  0  0  0
  171.5707  241.8543  211.9612 O   0  0  0  0  0  0  0  0  0  0  0  0
  171.3545  242.7373  209.8061 N   0  0  0  0  0  0  0  0  0  0  0  0
  170.7325  243.2797  209.1639 H   0  0  0  0  0  0  0  0  0  0  0  0
  172.7024  242.3995  209.3345 C   0  0  0  0  0  0  0  0  0  0  0  0
  173.7289  242.8792  210.3323 C   0  0  0  0  0  0  0  0  0  0  0  0
  174.7118  242.1431  210.6122 O   0  0  0  0  0  0  0  0  0  0  0  0
  173.6234  244.1933  210.9103 N   0  0  0  0  0  0  0  0  0  0  0  0
  172.8290  244.7957  210.5883 H   0  0  0  0  0  0  0  0  0  0  0  0
  174.7237  244.7950  211.6821 C   0  0  0  0  0  0  0  0  0  0  0  0
  174.2611  245.2817  213.0406 C   0  0  0  0  0  0  0  0  0  0  0  0
  173.1475  244.8954  213.4893 O   0  0  0  0  0  0  0  0  0  0  0  0
  174.9853  246.2846  213.7786 N   0  0  0  0  0  0  0  0  0  0  0  0
  174.4017  247.0026  214.2701 H   0  0  0  0  0  0  0  0  0  0  0  0
  176.4015  246.2107  214.1824 C   0  0  0  0  0  0  0  0  0  0  0  0
  176.7979  247.3908  215.0408 C   0  0  0  0  0  0  0  0  0  0  0  0
  176.5355  248.5591  214.6617 O   0  0  0  0  0  0  0  0  0  0  0  0
  177.5865  247.2150  216.2257 N   0  0  0  0  0  0  0  0  0  0  0  0
  177.0012  247.0836  217.5486 C   0  0  0  0  0  0  0  0  0  0  0  0
  178.1304  247.3712  218.5271 C   0  0  0  0  0  0  0  0  0  0  0  0
  179.4198  247.2030  217.7262 C   0  0  0  0  0  0  0  0  0  0  0  0
  179.0285  247.4217  216.2637 C   0  0  0  0  0  0  0  0  0  0  0  0
  179.3883  248.8088  215.8067 C   0  0  0  0  0  0  0  0  0  0  0  0
  180.3437  248.9791  214.8151 O   0  0  0  0  0  0  0  0  0  0  0  0
  178.8490  249.8139  216.3430 O   0  0  0  0  0  0  0  0  0  0  0  0
  180.6110  249.9049  214.5038 H   0  0  0  0  0  0  0  0  0  0  0  0
  176.7238  244.8527  214.8387 C   0  0  0  0  0  0  0  0  0  0  0  0
  175.6050  244.4818  216.2320 S   0  0  0  0  0  0  0  0  0  0  0  0
  174.4255  244.5532  215.4763 H   0  0  0  0  0  0  0  0  0  0  0  0
  175.3616  245.9441  210.8718 C   0  0  0  0  0  0  0  0  0  0  0  0
  176.0505  245.4596  209.6220 C   0  0  0  0  0  0  0  0  0  0  0  0
  175.5742  245.5548  208.3344 C   0  0  0  0  0  0  0  0  0  0  0  0
  176.4540  244.9776  207.4933 N   0  0  0  0  0  0  0  0  0  0  0  0
  177.4435  244.5330  208.2974 C   0  0  0  0  0  0  0  0  0  0  0  0
  177.2282  244.8108  209.5961 N   0  0  0  0  0  0  0  0  0  0  0  0
  177.8243  244.5368  210.4085 H   0  0  0  0  0  0  0  0  0  0  0  0
  172.8296  240.8733  209.1427 C   0  0  0  0  0  0  0  0  0  0  0  0
  171.5056  240.2246  208.7041 C   0  0  0  0  0  0  0  0  0  0  0  0
  171.1829  239.0224  209.5478 C   0  0  0  0  0  0  0  0  0  0  0  0
  171.5772  237.8805  209.1897 O   0  0  0  0  0  0  0  0  0  0  0  0
  170.4231  239.1640  210.7497 N   0  0  0  0  0  0  0  0  0  0  0  0
  170.2373  238.3350  211.3572 H   0  0  0  0  0  0  0  0  0  0  0  0
  170.0324  240.0884  211.0357 H   0  0  0  0  0  0  0  0  0  0  0  0
  168.5500  243.3502  211.2245 C   0  0  0  0  0  0  0  0  0  0  0  0
  167.5406  243.1519  212.3684 C   0  0  0  0  0  0  0  0  0  0  0  0
  168.2132  243.0113  213.7459 C   0  0  0  0  0  0  0  0  0  0  0  0
  167.8490  244.1127  214.7635 C   0  0  0  0  0  0  0  0  0  0  0  0
  166.9879  245.1487  214.1880 N   0  0  0  0  0  0  0  0  0  0  0  0
  166.0351  244.7445  214.0242 H   0  0  0  0  0  0  0  0  0  0  0  0
  167.3739  245.4423  213.2672 H   0  0  0  0  0  0  0  0  0  0  0  0
  172.2589  248.7255  211.7286 C   0  0  0  0  0  0  0  0  0  0  0  0
  173.3051  248.5633  212.4116 O   0  0  0  0  0  0  0  0  0  0  0  0
  170.9854  248.3793  212.2790 N   0  0  0  0  0  0  0  0  0  0  0  0
  170.1593  248.9829  212.0582 H   0  0  0  0  0  0  0  0  0  0  0  0
  172.3578  249.0749  210.2725 C   0  0  0  0  0  0  0  0  0  0  0  0
  171.8101  247.0436  208.8346 C   0  0  0  0  0  0  0  0  0  0  0  0
  171.9867  245.7906  208.8232 O   0  0  0  0  0  0  0  0  0  0  0  0
  172.7526  247.8684  209.5406 N   0  0  0  0  0  0  0  0  0  0  0  0
  173.6567  247.4179  209.7998 H   0  0  0  0  0  0  0  0  0  0  0  0
  170.6833  247.6580  208.0312 C   0  0  0  0  0  0  0  0  0  0  0  0
  171.2720  249.4281  206.3168 C   0  0  0  0  0  0  0  0  0  0  0  0
  171.7213  248.5566  205.5221 O   0  0  0  0  0  0  0  0  0  0  0  0
  170.9490  249.0575  207.6672 N   0  0  0  0  0  0  0  0  0  0  0  0
  170.8638  249.8194  208.3740 H   0  0  0  0  0  0  0  0  0  0  0  0
  171.0493  250.8505  205.8603 C   0  0  0  0  0  0  0  0  0  0  0  0
  169.8929  250.8889  204.8620 C   0  0  0  0  0  0  0  0  0  0  0  0
  172.5655  252.8417  205.3485 C   0  0  0  0  0  0  0  0  0  0  0  0
  171.7185  253.6488  205.8185 O   0  0  0  0  0  0  0  0  0  0  0  0
  172.2586  251.4395  205.2594 N   0  0  0  0  0  0  0  0  0  0  0  0
  172.9608  250.8363  204.7810 H   0  0  0  0  0  0  0  0  0  0  0  0
  173.9027  253.3598  204.8791 C   0  0  0  0  0  0  0  0  0  0  0  0
  176.3061  252.8806  205.5347 C   0  0  0  0  0  0  0  0  0  0  0  0
  176.7592  252.8342  206.7124 O   0  0  0  0  0  0  0  0  0  0  0  0
  174.9652  252.4381  205.2942 N   0  0  0  0  0  0  0  0  0  0  0  0
  174.6720  251.5871  205.8152 H   0  0  0  0  0  0  0  0  0  0  0  0
  177.2572  253.2515  204.4090 C   0  0  0  0  0  0  0  0  0  0  0  0
  178.6160  255.3655  204.4500 C   0  0  0  0  0  0  0  0  0  0  0  0
  179.6534  254.9560  203.8597 O   0  0  0  0  0  0  0  0  0  0  0  0
  177.3685  254.7003  204.2255 N   0  0  0  0  0  0  0  0  0  0  0  0
  176.5576  255.2621  203.8889 H   0  0  0  0  0  0  0  0  0  0  0  0
  177.6882  257.5099  205.1717 N   0  0  0  0  0  0  0  0  0  0  0  0
  178.7061  256.4904  205.4595 C   0  0  0  0  0  0  0  0  0  0  0  0
  177.8577  258.3306  205.7994 H   0  0  0  0  0  0  0  0  0  0  0  0
  177.8363  257.8620  204.1990 H   0  0  0  0  0  0  0  0  0  0  0  0
  178.5889  255.9692  206.9090 C   0  0  0  0  0  0  0  0  0  0  0  0
  177.2521  255.5952  207.1498 O   0  0  0  0  0  0  0  0  0  0  0  0
  179.5083  254.7701  207.1810 C   0  0  0  0  0  0  0  0  0  0  0  0
  177.1493  255.5126  208.1321 H   0  0  0  0  0  0  0  0  0  0  0  0
  176.8691  252.5587  203.0912 C   0  0  0  0  0  0  0  0  0  0  0  0
  177.8966  251.5218  202.6031 C   0  0  0  0  0  0  0  0  0  0  0  0
  177.8116  250.2272  203.3716 C   0  0  0  0  0  0  0  0  0  0  0  0
  176.7307  249.8475  203.8931 O   0  0  0  0  0  0  0  0  0  0  0  0
  178.9713  249.4067  203.4993 N   0  0  0  0  0  0  0  0  0  0  0  0
  178.9213  248.5008  204.0118 H   0  0  0  0  0  0  0  0  0  0  0  0
  179.8711  249.6796  203.0393 H   0  0  0  0  0  0  0  0  0  0  0  0
  174.2322  254.8240  205.2980 C   0  0  0  0  0  0  0  0  0  0  0  0
  174.0437  255.9344  204.2433 C   0  0  0  0  0  0  0  0  0  0  0  0
  172.8792  256.8756  204.4508 C   0  0  0  0  0  0  0  0  0  0  0  0
  172.8303  257.9241  203.7598 O   0  0  0  0  0  0  0  0  0  0  0  0
  171.8572  256.6505  205.4275 N   0  0  0  0  0  0  0  0  0  0  0  0
  171.9253  255.9075  206.1531 H   0  0  0  0  0  0  0  0  0  0  0  0
  171.0566  257.3216  205.5041 H   0  0  0  0  0  0  0  0  0  0  0  0
  169.3683  247.5446  208.8302 C   0  0  0  0  0  0  0  0  0  0  0  0
  168.9597  246.2037  208.9360 O   0  0  0  0  0  0  0  0  0  0  0  0
  169.4125  245.8337  209.7420 H   0  0  0  0  0  0  0  0  0  0  0  0
  173.3557  250.2207  210.0225 C   0  0  0  0  0  0  0  0  0  0  0  0
  174.3925  249.8076  209.0166 C   0  0  0  0  0  0  0  0  0  0  0  0
  175.6101  249.2161  209.2986 C   0  0  0  0  0  0  0  0  0  0  0  0
  176.2958  249.0509  208.1485 N   0  0  0  0  0  0  0  0  0  0  0  0
  175.4743  249.5463  207.1940 C   0  0  0  0  0  0  0  0  0  0  0  0
  174.3074  250.0046  207.6926 N   0  0  0  0  0  0  0  0  0  0  0  0
  173.5303  250.4502  207.1587 H   0  0  0  0  0  0  0  0  0  0  0  0
 95 96  1  0  0  0
 96 91  1  0  0  0
 91 92  2  0  0  0
 91 93  1  0  0  0
 93 90  1  0  0  0
 90103  1  0  0  0
103104  1  0  0  0
104105  1  0  0  0
105106  2  0  0  0
105107  1  0  0  0
 90 86  1  0  0  0
 86 87  2  0  0  0
 86 88  1  0  0  0
 88 85  1  0  0  0
 85110  1  0  0  0
110111  1  0  0  0
111112  1  0  0  0
112113  2  0  0  0
112114  1  0  0  0
 85 81  1  0  0  0
 81 82  2  0  0  0
 81 83  1  0  0  0
 83 79  1  0  0  0
 79 80  1  0  0  0
 79 75  1  0  0  0
 75 76  2  0  0  0
 75 77  1  0  0  0
 77 74  1  0  0  0
 74117  1  0  0  0
117118  1  0  0  0
 74 70  1  0  0  0
 70 71  2  0  0  0
 70 72  1  0  0  0
 72 69  1  0  0  0
 69120  1  0  0  0
120121  1  0  0  0
121122  2  0  0  0
122123  1  0  0  0
123124  2  0  0  0
124125  1  0  0  0
 69 65  1  0  0  0
 65 66  2  0  0  0
 65 67  1  0  0  0
 67  1  1  0  0  0
  1  2  1  0  0  0
  2  3  2  0  0  0
  3  4  1  0  0  0
  4  5  2  0  0  0
  5  6  1  0  0  0
  5  7  1  0  0  0
  7  8  2  0  0  0
  1 10  1  0  0  0
 10 11  2  0  0  0
 10 12  1  0  0  0
 12 14  1  0  0  0
 14 58  1  0  0  0
 58 59  1  0  0  0
 59 60  1  0  0  0
 60 61  1  0  0  0
 61 62  1  0  0  0
 14 15  1  0  0  0
 15 16  2  0  0  0
 15 17  1  0  0  0
 17 19  1  0  0  0
 19 51  1  0  0  0
 51 52  1  0  0  0
 52 53  1  0  0  0
 53 54  2  0  0  0
 53 55  1  0  0  0
 19 20  1  0  0  0
 20 21  2  0  0  0
 20 22  1  0  0  0
 22 24  1  0  0  0
 24 44  1  0  0  0
 44 45  1  0  0  0
 45 46  2  0  0  0
 46 47  1  0  0  0
 47 48  2  0  0  0
 48 49  1  0  0  0
 24 25  1  0  0  0
 25 26  2  0  0  0
 25 27  1  0  0  0
 27 29  1  0  0  0
 29 41  1  0  0  0
 41 42  1  0  0  0
 29 30  1  0  0  0
 30 31  2  0  0  0
 30 32  1  0  0  0
 32 33  1  0  0  0
 33 34  1  0  0  0
 34 35  1  0  0  0
 35 36  1  0  0  0
 36 37  1  0  0  0
 37 38  1  0  0  0
 37 39  2  0  0  0
 96 99  1  0  0  0
 99100  1  0  0  0
 99101  1  0  0  0
125121  1  0  0  0
  8  2  1  0  0  0
 49 45  1  0  0  0
 36 32  1  0  0  0
 95 97  1  0  0  0
 95 98  1  0  0  0
 93 94  1  0  0  0
107108  1  0  0  0
107109  1  0  0  0
 88 89  1  0  0  0
114115  1  0  0  0
114116  1  0  0  0
 83 84  1  0  0  0
 77 78  1  0  0  0
118119  1  0  0  0
 72 73  1  0  0  0
125126  1  0  0  0
 67 68  1  0  0  0
  6  9  1  0  0  0
 12 13  1  0  0  0
 62 63  1  0  0  0
 62 64  1  0  0  0
 17 18  1  0  0  0
 55 56  1  0  0  0
 55 57  1  0  0  0
 22 23  1  0  0  0
 49 50  1  0  0  0
 27 28  1  0  0  0
 42 43  1  0  0  0
 38 40  1  0  0  0
100102  1  0  0  0
M  END
> <minimizedAffinity>
-8.27837

$$$$



126129  0  0  0  0  0  0  0  0999 V2000
  173.2048  247.9294  210.0625 C   0  0  0  0  0  0  0  0  0  0  0  0
  174.0234  249.0854  209.5361 C   0  0  0  0  0  0  0  0  0  0  0  0
  175.4284  249.0248  209.5107 C   0  0  0  0  0  0  0  0  0  0  0  0
  176.1717  250.0798  208.9762 C   0  0  0  0  0  0  0  0  0  0  0  0
  175.5246  251.2178  208.4783 C   0  0  0  0  0  0  0  0  0  0  0  0
  176.2753  252.2644  207.9442 O   0  0  0  0  0  0  0  0  0  0  0  0
  174.1271  251.2932  208.5147 C   0  0  0  0  0  0  0  0  0  0  0  0
  173.3823  250.2283  209.0322 C   0  0  0  0  0  0  0  0  0  0  0  0
  175.8321  253.1158  207.6192 H   0  0  0  0  0  0  0  0  0  0  0  0
  173.0496  248.0234  211.5579 C   0  0  0  0  0  0  0  0  0  0  0  0
  172.9067  249.1426  212.1168 O   0  0  0  0  0  0  0  0  0  0  0  0
  173.1083  246.8337  212.3566 N   0  0  0  0  0  0  0  0  0  0  0  0
  172.5960  245.9972  211.9928 H   0  0  0  0  0  0  0  0  0  0  0  0
  174.1098  246.5858  213.4067 C   0  0  0  0  0  0  0  0  0  0  0  0
  175.2805  245.8432  212.8071 C   0  0  0  0  0  0  0  0  0  0  0  0
  176.4611  246.2628  212.9766 O   0  0  0  0  0  0  0  0  0  0  0  0
  175.0435  244.6611  212.0299 N   0  0  0  0  0  0  0  0  0  0  0  0
  174.0964  244.2210  212.0830 H   0  0  0  0  0  0  0  0  0  0  0  0
  175.9133  244.2875  210.9087 C   0  0  0  0  0  0  0  0  0  0  0  0
  175.8549  242.7947  210.6910 C   0  0  0  0  0  0  0  0  0  0  0  0
  176.9243  242.1508  210.5235 O   0  0  0  0  0  0  0  0  0  0  0  0
  174.5946  242.1008  210.7402 N   0  0  0  0  0  0  0  0  0  0  0  0
  173.7425  242.6704  210.9572 H   0  0  0  0  0  0  0  0  0  0  0  0
  174.5164  240.6312  210.7880 C   0  0  0  0  0  0  0  0  0  0  0  0
  173.9594  240.0527  209.5029 C   0  0  0  0  0  0  0  0  0  0  0  0
  174.6398  239.2079  208.8594 O   0  0  0  0  0  0  0  0  0  0  0  0
  172.7387  240.5400  208.9132 N   0  0  0  0  0  0  0  0  0  0  0  0
  172.7392  240.6330  207.8697 H   0  0  0  0  0  0  0  0  0  0  0  0
  171.4200  240.5960  209.5704 C   0  0  0  0  0  0  0  0  0  0  0  0
  171.0688  242.0043  209.9944 C   0  0  0  0  0  0  0  0  0  0  0  0
  171.7463  242.9743  209.5730 O   0  0  0  0  0  0  0  0  0  0  0  0
  170.0524  242.2524  210.9753 N   0  0  0  0  0  0  0  0  0  0  0  0
  168.6739  242.5457  210.6240 C   0  0  0  0  0  0  0  0  0  0  0  0
  168.0587  243.1737  211.8660 C   0  0  0  0  0  0  0  0  0  0  0  0
  168.9831  242.7907  213.0197 C   0  0  0  0  0  0  0  0  0  0  0  0
  170.3432  242.5040  212.3810 C   0  0  0  0  0  0  0  0  0  0  0  0
  171.2752  243.6738  212.5396 C   0  0  0  0  0  0  0  0  0  0  0  0
  170.7547  244.9504  212.6963 O   0  0  0  0  0  0  0  0  0  0  0  0
  172.5231  243.5015  212.4986 O   0  0  0  0  0  0  0  0  0  0  0  0
  171.3650  245.7531  212.7897 H   0  0  0  0  0  0  0  0  0  0  0  0
  170.3325  239.9412  208.6945 C   0  0  0  0  0  0  0  0  0  0  0  0
  170.0689  238.1875  209.1253 S   0  0  0  0  0  0  0  0  0  0  0  0
  169.7374  238.4298  210.4665 H   0  0  0  0  0  0  0  0  0  0  0  0
  173.6700  240.1932  212.0029 C   0  0  0  0  0  0  0  0  0  0  0  0
  173.3257  238.7263  211.9712 C   0  0  0  0  0  0  0  0  0  0  0  0
  172.1390  238.1543  212.3692 C   0  0  0  0  0  0  0  0  0  0  0  0
  172.2223  236.8174  212.2264 N   0  0  0  0  0  0  0  0  0  0  0  0
  173.4696  236.6084  211.7531 C   0  0  0  0  0  0  0  0  0  0  0  0
  174.1649  237.7482  211.5868 N   0  0  0  0  0  0  0  0  0  0  0  0
  175.1565  237.8440  211.2741 H   0  0  0  0  0  0  0  0  0  0  0  0
  175.4697  245.0230  209.6263 C   0  0  0  0  0  0  0  0  0  0  0  0
  175.9418  244.3098  208.3477 C   0  0  0  0  0  0  0  0  0  0  0  0
  174.7786  243.9438  207.4678 C   0  0  0  0  0  0  0  0  0  0  0  0
  174.3312  242.7659  207.4771 O   0  0  0  0  0  0  0  0  0  0  0  0
  174.1820  244.9208  206.6125 N   0  0  0  0  0  0  0  0  0  0  0  0
  173.3468  244.6767  206.0349 H   0  0  0  0  0  0  0  0  0  0  0  0
  174.5726  245.8857  206.5402 H   0  0  0  0  0  0  0  0  0  0  0  0
  173.5291  245.8722  214.6540 C   0  0  0  0  0  0  0  0  0  0  0  0
  173.9366  246.5591  215.9689 C   0  0  0  0  0  0  0  0  0  0  0  0
  175.3631  246.1961  216.4196 C   0  0  0  0  0  0  0  0  0  0  0  0
  175.7207  244.6993  216.3053 C   0  0  0  0  0  0  0  0  0  0  0  0
  176.9588  244.4717  215.5560 N   0  0  0  0  0  0  0  0  0  0  0  0
  177.7693  244.7981  216.1343 H   0  0  0  0  0  0  0  0  0  0  0  0
  176.9397  245.0377  214.6829 H   0  0  0  0  0  0  0  0  0  0  0  0
  171.2471  246.6301  209.1756 C   0  0  0  0  0  0  0  0  0  0  0  0
  171.8853  245.6714  208.6646 O   0  0  0  0  0  0  0  0  0  0  0  0
  171.8981  247.8834  209.3989 N   0  0  0  0  0  0  0  0  0  0  0  0
  171.3583  248.7669  209.2453 H   0  0  0  0  0  0  0  0  0  0  0  0
  169.8781  246.4029  209.7468 C   0  0  0  0  0  0  0  0  0  0  0  0
  168.6693  246.2518  207.5085 C   0  0  0  0  0  0  0  0  0  0  0  0
  167.5358  245.9395  207.0405 O   0  0  0  0  0  0  0  0  0  0  0  0
  169.0870  245.6696  208.7551 N   0  0  0  0  0  0  0  0  0  0  0  0
  168.5427  244.8430  209.0838 H   0  0  0  0  0  0  0  0  0  0  0  0
  169.6001  247.1411  206.7115 C   0  0  0  0  0  0  0  0  0  0  0  0
  169.5584  249.6117  206.1512 C   0  0  0  0  0  0  0  0  0  0  0  0
  170.5161  249.8409  206.9407 O   0  0  0  0  0  0  0  0  0  0  0  0
  168.9190  248.3247  206.1667 N   0  0  0  0  0  0  0  0  0  0  0  0
  167.9721  248.2464  205.7368 H   0  0  0  0  0  0  0  0  0  0  0  0
  169.0902  250.6654  205.1757 C   0  0  0  0  0  0  0  0  0  0  0  0
  168.0595  251.5657  205.8557 C   0  0  0  0  0  0  0  0  0  0  0  0
  169.0164  250.3919  202.6369 C   0  0  0  0  0  0  0  0  0  0  0  0
  169.8644  251.3118  202.4807 O   0  0  0  0  0  0  0  0  0  0  0  0
  168.5214  250.0779  203.9502 N   0  0  0  0  0  0  0  0  0  0  0  0
  167.7578  249.3711  204.0059 H   0  0  0  0  0  0  0  0  0  0  0  0
  168.5242  249.6248  201.4344 C   0  0  0  0  0  0  0  0  0  0  0  0
  168.0910  247.1385  201.6924 C   0  0  0  0  0  0  0  0  0  0  0  0
  168.3480  246.4423  202.7140 O   0  0  0  0  0  0  0  0  0  0  0  0
  167.6884  248.5015  201.8706 N   0  0  0  0  0  0  0  0  0  0  0  0
  167.0395  248.6789  202.6639 H   0  0  0  0  0  0  0  0  0  0  0  0
  168.0667  246.4510  200.3373 C   0  0  0  0  0  0  0  0  0  0  0  0
  165.5941  246.4374  199.8866 C   0  0  0  0  0  0  0  0  0  0  0  0
  165.1699  246.6582  201.0544 O   0  0  0  0  0  0  0  0  0  0  0  0
  166.9155  246.8539  199.5264 N   0  0  0  0  0  0  0  0  0  0  0  0
  167.0330  247.4822  198.7031 H   0  0  0  0  0  0  0  0  0  0  0  0
  164.0499  244.5640  199.5944 N   0  0  0  0  0  0  0  0  0  0  0  0
  164.7497  245.6551  198.9030 C   0  0  0  0  0  0  0  0  0  0  0  0
  163.5814  243.9652  198.8745 H   0  0  0  0  0  0  0  0  0  0  0  0
  164.7612  243.9511  200.0531 H   0  0  0  0  0  0  0  0  0  0  0  0
  163.7611  246.5684  198.1446 C   0  0  0  0  0  0  0  0  0  0  0  0
  163.9599  247.8988  198.5637 O   0  0  0  0  0  0  0  0  0  0  0  0
  163.9313  246.4854  196.6210 C   0  0  0  0  0  0  0  0  0  0  0  0
  163.1666  248.4145  198.2686 H   0  0  0  0  0  0  0  0  0  0  0  0
  168.1299  244.9204  200.4799 C   0  0  0  0  0  0  0  0  0  0  0  0
  169.1281  244.2434  199.5237 C   0  0  0  0  0  0  0  0  0  0  0  0
  168.5212  243.9559  198.1736 C   0  0  0  0  0  0  0  0  0  0  0  0
  167.9093  242.8791  197.9490 O   0  0  0  0  0  0  0  0  0  0  0  0
  168.6264  244.9260  197.1333 N   0  0  0  0  0  0  0  0  0  0  0  0
  168.1953  244.7475  196.2016 H   0  0  0  0  0  0  0  0  0  0  0  0
  169.0934  245.8464  197.3074 H   0  0  0  0  0  0  0  0  0  0  0  0
  169.6342  249.1510  200.4487 C   0  0  0  0  0  0  0  0  0  0  0  0
  169.6999  249.8233  199.0613 C   0  0  0  0  0  0  0  0  0  0  0  0
  170.6787  250.9648  198.9071 C   0  0  0  0  0  0  0  0  0  0  0  0
  171.6148  250.8389  198.0782 O   0  0  0  0  0  0  0  0  0  0  0  0
  170.6149  252.1600  199.6923 N   0  0  0  0  0  0  0  0  0  0  0  0
  169.9859  252.2605  200.5152 H   0  0  0  0  0  0  0  0  0  0  0  0
  171.3019  252.9315  199.5186 H   0  0  0  0  0  0  0  0  0  0  0  0
  170.2457  246.3162  205.5787 C   0  0  0  0  0  0  0  0  0  0  0  0
  171.5846  246.0119  205.8802 O   0  0  0  0  0  0  0  0  0  0  0  0
  171.5700  245.1671  206.4071 H   0  0  0  0  0  0  0  0  0  0  0  0
  169.1887  247.7250  210.1312 C   0  0  0  0  0  0  0  0  0  0  0  0
  168.9856  247.8016  211.6180 C   0  0  0  0  0  0  0  0  0  0  0  0
  167.9933  247.1621  212.3380 C   0  0  0  0  0  0  0  0  0  0  0  0
  168.0910  247.5199  213.6352 N   0  0  0  0  0  0  0  0  0  0  0  0
  169.1444  248.3688  213.6706 C   0  0  0  0  0  0  0  0  0  0  0  0
  169.7122  248.5509  212.4604 N   0  0  0  0  0  0  0  0  0  0  0  0
  170.5175  249.1734  212.2339 H   0  0  0  0  0  0  0  0  0  0  0  0
 95 96  1  0  0  0
 96 91  1  0  0  0
 91 92  2  0  0  0
 91 93  1  0  0  0
 93 90  1  0  0  0
 90103  1  0  0  0
103104  1  0  0  0
104105  1  0  0  0
105106  2  0  0  0
105107  1  0  0  0
 90 86  1  0  0  0
 86 87  2  0  0  0
 86 88  1  0  0  0
 88 85  1  0  0  0
 85110  1  0  0  0
110111  1  0  0  0
111112  1  0  0  0
112113  2  0  0  0
112114  1  0  0  0
 85 81  1  0  0  0
 81 82  2  0  0  0
 81 83  1  0  0  0
 83 79  1  0  0  0
 79 80  1  0  0  0
 79 75  1  0  0  0
 75 76  2  0  0  0
 75 77  1  0  0  0
 77 74  1  0  0  0
 74117  1  0  0  0
117118  1  0  0  0
 74 70  1  0  0  0
 70 71  2  0  0  0
 70 72  1  0  0  0
 72 69  1  0  0  0
 69120  1  0  0  0
120121  1  0  0  0
121122  2  0  0  0
122123  1  0  0  0
123124  2  0  0  0
124125  1  0  0  0
 69 65  1  0  0  0
 65 66  2  0  0  0
 65 67  1  0  0  0
 67  1  1  0  0  0
  1  2  1  0  0  0
  2  3  2  0  0  0
  3  4  1  0  0  0
  4  5  2  0  0  0
  5  6  1  0  0  0
  5  7  1  0  0  0
  7  8  2  0  0  0
  1 10  1  0  0  0
 10 11  2  0  0  0
 10 12  1  0  0  0
 12 14  1  0  0  0
 14 58  1  0  0  0
 58 59  1  0  0  0
 59 60  1  0  0  0
 60 61  1  0  0  0
 61 62  1  0  0  0
 14 15  1  0  0  0
 15 16  2  0  0  0
 15 17  1  0  0  0
 17 19  1  0  0  0
 19 51  1  0  0  0
 51 52  1  0  0  0
 52 53  1  0  0  0
 53 54  2  0  0  0
 53 55  1  0  0  0
 19 20  1  0  0  0
 20 21  2  0  0  0
 20 22  1  0  0  0
 22 24  1  0  0  0
 24 44  1  0  0  0
 44 45  1  0  0  0
 45 46  2  0  0  0
 46 47  1  0  0  0
 47 48  2  0  0  0
 48 49  1  0  0  0
 24 25  1  0  0  0
 25 26  2  0  0  0
 25 27  1  0  0  0
 27 29  1  0  0  0
 29 41  1  0  0  0
 41 42  1  0  0  0
 29 30  1  0  0  0
 30 31  2  0  0  0
 30 32  1  0  0  0
 32 33  1  0  0  0
 33 34  1  0  0  0
 34 35  1  0  0  0
 35 36  1  0  0  0
 36 37  1  0  0  0
 37 38  1  0  0  0
 37 39  2  0  0  0
 96 99  1  0  0  0
 99100  1  0  0  0
 99101  1  0  0  0
125121  1  0  0  0
  8  2  1  0  0  0
 49 45  1  0  0  0
 36 32  1  0  0  0
 95 97  1  0  0  0
 95 98  1  0  0  0
 93 94  1  0  0  0
107108  1  0  0  0
107109  1  0  0  0
 88 89  1  0  0  0
114115  1  0  0  0
114116  1  0  0  0
 83 84  1  0  0  0
 77 78  1  0  0  0
118119  1  0  0  0
 72 73  1  0  0  0
125126  1  0  0  0
 67 68  1  0  0  0
  6  9  1  0  0  0
 12 13  1  0  0  0
 62 63  1  0  0  0
 62 64  1  0  0  0
 17 18  1  0  0  0
 55 56  1  0  0  0
 55 57  1  0  0  0
 22 23  1  0  0  0
 49 50  1  0  0  0
 27 28  1  0  0  0
 42 43  1  0  0  0
 38 40  1  0  0  0
100102  1  0  0  0
M  END
> <minimizedAffinity>
-8.22908

$$$$



126129  0  0  0  0  0  0  0  0999 V2000
  174.0309  247.4089  213.5683 C   0  0  0  0  0  0  0  0  0  0  0  0
  172.8579  247.1078  214.4723 C   0  0  0  0  0  0  0  0  0  0  0  0
  171.6029  247.7034  214.2518 C   0  0  0  0  0  0  0  0  0  0  0  0
  170.5141  247.3790  215.0646 C   0  0  0  0  0  0  0  0  0  0  0  0
  170.6674  246.4716  216.1205 C   0  0  0  0  0  0  0  0  0  0  0  0
  169.5739  246.1522  216.9244 O   0  0  0  0  0  0  0  0  0  0  0  0
  171.9172  245.8867  216.3570 C   0  0  0  0  0  0  0  0  0  0  0  0
  173.0024  246.1969  215.5309 C   0  0  0  0  0  0  0  0  0  0  0  0
  169.6709  245.5332  217.7209 H   0  0  0  0  0  0  0  0  0  0  0  0
  174.5649  246.1439  212.9488 C   0  0  0  0  0  0  0  0  0  0  0  0
  173.7853  245.2047  212.6399 O   0  0  0  0  0  0  0  0  0  0  0  0
  175.9765  245.9894  212.7483 N   0  0  0  0  0  0  0  0  0  0  0  0
  176.4922  246.8194  212.3747 H   0  0  0  0  0  0  0  0  0  0  0  0
  176.7931  244.9315  213.3659 C   0  0  0  0  0  0  0  0  0  0  0  0
  176.7933  243.7189  212.4653 C   0  0  0  0  0  0  0  0  0  0  0  0
  177.7862  242.9364  212.4434 O   0  0  0  0  0  0  0  0  0  0  0  0
  175.6612  243.4658  211.6217 N   0  0  0  0  0  0  0  0  0  0  0  0
  174.7799  243.9956  211.8115 H   0  0  0  0  0  0  0  0  0  0  0  0
  175.8030  242.8134  210.3150 C   0  0  0  0  0  0  0  0  0  0  0  0
  175.4134  241.3588  210.4242 C   0  0  0  0  0  0  0  0  0  0  0  0
  176.2150  240.5404  210.9477 O   0  0  0  0  0  0  0  0  0  0  0  0
  174.1112  240.9200  209.9953 N   0  0  0  0  0  0  0  0  0  0  0  0
  173.4533  241.6522  209.6365 H   0  0  0  0  0  0  0  0  0  0  0  0
  173.5983  239.5770  210.3138 C   0  0  0  0  0  0  0  0  0  0  0  0
  172.3851  239.2224  209.4778 C   0  0  0  0  0  0  0  0  0  0  0  0
  172.4097  238.1844  208.7618 O   0  0  0  0  0  0  0  0  0  0  0  0
  171.2539  240.1069  209.3617 N   0  0  0  0  0  0  0  0  0  0  0  0
  170.8282  240.1834  208.4075 H   0  0  0  0  0  0  0  0  0  0  0  0
  170.4481  240.6354  210.4776 C   0  0  0  0  0  0  0  0  0  0  0  0
  170.5218  242.1439  210.5519 C   0  0  0  0  0  0  0  0  0  0  0  0
  171.6312  242.7240  210.4501 O   0  0  0  0  0  0  0  0  0  0  0  0
  169.3636  242.9290  210.8663 N   0  0  0  0  0  0  0  0  0  0  0  0
  168.5108  243.5169  209.8480 C   0  0  0  0  0  0  0  0  0  0  0  0
  167.7112  244.5997  210.5577 C   0  0  0  0  0  0  0  0  0  0  0  0
  167.8099  244.2730  212.0463 C   0  0  0  0  0  0  0  0  0  0  0  0
  169.0828  243.4392  212.2021 C   0  0  0  0  0  0  0  0  0  0  0  0
  170.2227  244.2781  212.7113 C   0  0  0  0  0  0  0  0  0  0  0  0
  170.6734  245.3536  211.9594 O   0  0  0  0  0  0  0  0  0  0  0  0
  170.7878  243.9879  213.7999 O   0  0  0  0  0  0  0  0  0  0  0  0
  171.4491  245.9218  212.2772 H   0  0  0  0  0  0  0  0  0  0  0  0
  169.0010  240.1047  210.4203 C   0  0  0  0  0  0  0  0  0  0  0  0
  168.8986  238.3417  210.8806 S   0  0  0  0  0  0  0  0  0  0  0  0
  169.4604  238.5055  212.1553 H   0  0  0  0  0  0  0  0  0  0  0  0
  173.2759  239.4857  211.8210 C   0  0  0  0  0  0  0  0  0  0  0  0
  173.3793  238.0790  212.3520 C   0  0  0  0  0  0  0  0  0  0  0  0
  173.1337  237.6703  213.6429 C   0  0  0  0  0  0  0  0  0  0  0  0
  173.3680  236.3473  213.7403 N   0  0  0  0  0  0  0  0  0  0  0  0
  173.7637  235.9853  212.5011 C   0  0  0  0  0  0  0  0  0  0  0  0
  173.7806  237.0146  211.6348 N   0  0  0  0  0  0  0  0  0  0  0  0
  174.0867  236.9959  210.6366 H   0  0  0  0  0  0  0  0  0  0  0  0
  174.9115  243.5189  209.2711 C   0  0  0  0  0  0  0  0  0  0  0  0
  175.6357  243.7357  207.9314 C   0  0  0  0  0  0  0  0  0  0  0  0
  176.8769  244.5652  208.1119 C   0  0  0  0  0  0  0  0  0  0  0  0
  177.9926  244.1142  207.7385 O   0  0  0  0  0  0  0  0  0  0  0  0
  176.8019  245.8593  208.7133 N   0  0  0  0  0  0  0  0  0  0  0  0
  177.6577  246.4521  208.7980 H   0  0  0  0  0  0  0  0  0  0  0  0
  175.9008  246.2296  209.0869 H   0  0  0  0  0  0  0  0  0  0  0  0
  176.3665  244.5940  214.8172 C   0  0  0  0  0  0  0  0  0  0  0  0
  176.6106  245.7608  215.7896 C   0  0  0  0  0  0  0  0  0  0  0  0
  176.9731  245.2932  217.2108 C   0  0  0  0  0  0  0  0  0  0  0  0
  177.1653  246.4270  218.2397 C   0  0  0  0  0  0  0  0  0  0  0  0
  177.6243  247.6745  217.6240 N   0  0  0  0  0  0  0  0  0  0  0  0
  176.8399  248.0835  217.0625 H   0  0  0  0  0  0  0  0  0  0  0  0
  178.4095  247.4666  216.9733 H   0  0  0  0  0  0  0  0  0  0  0  0
  174.5951  248.7954  211.5518 C   0  0  0  0  0  0  0  0  0  0  0  0
  175.7496  249.1589  211.9018 O   0  0  0  0  0  0  0  0  0  0  0  0
  173.6474  248.3792  212.5382 N   0  0  0  0  0  0  0  0  0  0  0  0
  172.6408  248.6365  212.4111 H   0  0  0  0  0  0  0  0  0  0  0  0
  174.2788  248.5917  210.0990 C   0  0  0  0  0  0  0  0  0  0  0  0
  172.5793  246.9214  209.1960 C   0  0  0  0  0  0  0  0  0  0  0  0
  171.8394  245.9786  209.6026 O   0  0  0  0  0  0  0  0  0  0  0  0
  173.7781  247.2251  209.9294 N   0  0  0  0  0  0  0  0  0  0  0  0
  174.0974  246.5034  210.6111 H   0  0  0  0  0  0  0  0  0  0  0  0
  172.2514  247.6395  207.9039 C   0  0  0  0  0  0  0  0  0  0  0  0
  170.2842  248.8059  206.8137 C   0  0  0  0  0  0  0  0  0  0  0  0
  170.9994  249.8005  206.5100 O   0  0  0  0  0  0  0  0  0  0  0  0
  170.8043  247.8029  207.7019 N   0  0  0  0  0  0  0  0  0  0  0  0
  170.1239  247.1628  208.1651 H   0  0  0  0  0  0  0  0  0  0  0  0
  168.8969  248.6456  206.2384 C   0  0  0  0  0  0  0  0  0  0  0  0
  168.5188  247.1649  206.2280 C   0  0  0  0  0  0  0  0  0  0  0  0
  168.1282  250.4558  204.6080 C   0  0  0  0  0  0  0  0  0  0  0  0
  167.4785  251.0426  205.5155 O   0  0  0  0  0  0  0  0  0  0  0  0
  168.7875  249.2071  204.8807 N   0  0  0  0  0  0  0  0  0  0  0  0
  169.2322  248.7259  204.0704 H   0  0  0  0  0  0  0  0  0  0  0  0
  168.2064  251.0738  203.2337 C   0  0  0  0  0  0  0  0  0  0  0  0
  170.0863  252.1584  201.9202 C   0  0  0  0  0  0  0  0  0  0  0  0
  170.0576  253.3049  201.3919 O   0  0  0  0  0  0  0  0  0  0  0  0
  169.3810  251.9477  203.1490 N   0  0  0  0  0  0  0  0  0  0  0  0
  169.4417  252.7218  203.8409 H   0  0  0  0  0  0  0  0  0  0  0  0
  170.9974  251.1052  201.3115 C   0  0  0  0  0  0  0  0  0  0  0  0
  172.8832  251.8702  202.7864 C   0  0  0  0  0  0  0  0  0  0  0  0
  172.6154  251.2062  203.8255 O   0  0  0  0  0  0  0  0  0  0  0  0
  172.4159  251.4079  201.5148 N   0  0  0  0  0  0  0  0  0  0  0  0
  173.1118  251.2518  200.7547 H   0  0  0  0  0  0  0  0  0  0  0  0
  173.0660  254.1493  201.9192 N   0  0  0  0  0  0  0  0  0  0  0  0
  173.6110  253.1936  202.8929 C   0  0  0  0  0  0  0  0  0  0  0  0
  173.6696  255.0049  201.9247 H   0  0  0  0  0  0  0  0  0  0  0  0
  173.1629  253.7406  200.9624 H   0  0  0  0  0  0  0  0  0  0  0  0
  173.5606  253.7604  204.3291 C   0  0  0  0  0  0  0  0  0  0  0  0
  174.4240  253.0038  205.1459 O   0  0  0  0  0  0  0  0  0  0  0  0
  173.9669  255.2395  204.3943 C   0  0  0  0  0  0  0  0  0  0  0  0
  174.1861  253.2114  206.0853 H   0  0  0  0  0  0  0  0  0  0  0  0
  170.6901  250.8876  199.8197 C   0  0  0  0  0  0  0  0  0  0  0  0
  171.9304  250.9463  198.9102 C   0  0  0  0  0  0  0  0  0  0  0  0
  172.0433  252.2617  198.1815 C   0  0  0  0  0  0  0  0  0  0  0  0
  172.9634  252.4692  197.3480 O   0  0  0  0  0  0  0  0  0  0  0  0
  171.0826  253.2871  198.4266 N   0  0  0  0  0  0  0  0  0  0  0  0
  171.1385  254.1936  197.9157 H   0  0  0  0  0  0  0  0  0  0  0  0
  170.2840  253.1240  199.0833 H   0  0  0  0  0  0  0  0  0  0  0  0
  166.9184  251.8147  202.7642 C   0  0  0  0  0  0  0  0  0  0  0  0
  166.6430  251.8891  201.2477 C   0  0  0  0  0  0  0  0  0  0  0  0
  166.6636  253.2648  200.6219 C   0  0  0  0  0  0  0  0  0  0  0  0
  165.7681  254.0826  200.9514 O   0  0  0  0  0  0  0  0  0  0  0  0
  167.6263  253.6621  199.6398 N   0  0  0  0  0  0  0  0  0  0  0  0
  168.2797  252.9901  199.1874 H   0  0  0  0  0  0  0  0  0  0  0  0
  167.6109  254.6400  199.2646 H   0  0  0  0  0  0  0  0  0  0  0  0
  172.8820  246.8737  206.7223 C   0  0  0  0  0  0  0  0  0  0  0  0
  174.2571  246.6709  206.9326 O   0  0  0  0  0  0  0  0  0  0  0  0
  174.3414  245.8241  207.4497 H   0  0  0  0  0  0  0  0  0  0  0  0
  175.5053  248.8429  209.2026 C   0  0  0  0  0  0  0  0  0  0  0  0
  175.5481  250.2771  208.7564 C   0  0  0  0  0  0  0  0  0  0  0  0
  174.4549  251.0978  208.5481 C   0  0  0  0  0  0  0  0  0  0  0  0
  174.8828  252.2928  208.0910 N   0  0  0  0  0  0  0  0  0  0  0  0
  176.2292  252.1679  208.0346 C   0  0  0  0  0  0  0  0  0  0  0  0
  176.6611  250.9564  208.4418 N   0  0  0  0  0  0  0  0  0  0  0  0
  177.6473  250.6185  208.4650 H   0  0  0  0  0  0  0  0  0  0  0  0
 95 96  1  0  0  0
 96 91  1  0  0  0
 91 92  2  0  0  0
 91 93  1  0  0  0
 93 90  1  0  0  0
 90103  1  0  0  0
103104  1  0  0  0
104105  1  0  0  0
105106  2  0  0  0
105107  1  0  0  0
 90 86  1  0  0  0
 86 87  2  0  0  0
 86 88  1  0  0  0
 88 85  1  0  0  0
 85110  1  0  0  0
110111  1  0  0  0
111112  1  0  0  0
112113  2  0  0  0
112114  1  0  0  0
 85 81  1  0  0  0
 81 82  2  0  0  0
 81 83  1  0  0  0
 83 79  1  0  0  0
 79 80  1  0  0  0
 79 75  1  0  0  0
 75 76  2  0  0  0
 75 77  1  0  0  0
 77 74  1  0  0  0
 74117  1  0  0  0
117118  1  0  0  0
 74 70  1  0  0  0
 70 71  2  0  0  0
 70 72  1  0  0  0
 72 69  1  0  0  0
 69120  1  0  0  0
120121  1  0  0  0
121122  2  0  0  0
122123  1  0  0  0
123124  2  0  0  0
124125  1  0  0  0
 69 65  1  0  0  0
 65 66  2  0  0  0
 65 67  1  0  0  0
 67  1  1  0  0  0
  1  2  1  0  0  0
  2  3  2  0  0  0
  3  4  1  0  0  0
  4  5  2  0  0  0
  5  6  1  0  0  0
  5  7  1  0  0  0
  7  8  2  0  0  0
  1 10  1  0  0  0
 10 11  2  0  0  0
 10 12  1  0  0  0
 12 14  1  0  0  0
 14 58  1  0  0  0
 58 59  1  0  0  0
 59 60  1  0  0  0
 60 61  1  0  0  0
 61 62  1  0  0  0
 14 15  1  0  0  0
 15 16  2  0  0  0
 15 17  1  0  0  0
 17 19  1  0  0  0
 19 51  1  0  0  0
 51 52  1  0  0  0
 52 53  1  0  0  0
 53 54  2  0  0  0
 53 55  1  0  0  0
 19 20  1  0  0  0
 20 21  2  0  0  0
 20 22  1  0  0  0
 22 24  1  0  0  0
 24 44  1  0  0  0
 44 45  1  0  0  0
 45 46  2  0  0  0
 46 47  1  0  0  0
 47 48  2  0  0  0
 48 49  1  0  0  0
 24 25  1  0  0  0
 25 26  2  0  0  0
 25 27  1  0  0  0
 27 29  1  0  0  0
 29 41  1  0  0  0
 41 42  1  0  0  0
 29 30  1  0  0  0
 30 31  2  0  0  0
 30 32  1  0  0  0
 32 33  1  0  0  0
 33 34  1  0  0  0
 34 35  1  0  0  0
 35 36  1  0  0  0
 36 37  1  0  0  0
 37 38  1  0  0  0
 37 39  2  0  0  0
 96 99  1  0  0  0
 99100  1  0  0  0
 99101  1  0  0  0
125121  1  0  0  0
  8  2  1  0  0  0
 49 45  1  0  0  0
 36 32  1  0  0  0
 95 97  1  0  0  0
 95 98  1  0  0  0
 93 94  1  0  0  0
107108  1  0  0  0
107109  1  0  0  0
 88 89  1  0  0  0
114115  1  0  0  0
114116  1  0  0  0
 83 84  1  0  0  0
 77 78  1  0  0  0
118119  1  0  0  0
 72 73  1  0  0  0
125126  1  0  0  0
 67 68  1  0  0  0
  6  9  1  0  0  0
 12 13  1  0  0  0
 62 63  1  0  0  0
 62 64  1  0  0  0
 17 18  1  0  0  0
 55 56  1  0  0  0
 55 57  1  0  0  0
 22 23  1  0  0  0
 49 50  1  0  0  0
 27 28  1  0  0  0
 42 43  1  0  0  0
 38 40  1  0  0  0
100102  1  0  0  0
M  END
> <minimizedAffinity>
-8.18738

$$$$



126129  0  0  0  0  0  0  0  0999 V2000
  168.6202  247.0050  201.6308 C   0  0  0  0  0  0  0  0  0  0  0  0
  167.9579  245.7760  201.0524 C   0  0  0  0  0  0  0  0  0  0  0  0
  166.5743  245.5657  201.1931 C   0  0  0  0  0  0  0  0  0  0  0  0
  165.9662  244.4506  200.6116 C   0  0  0  0  0  0  0  0  0  0  0  0
  166.7331  243.5200  199.8992 C   0  0  0  0  0  0  0  0  0  0  0  0
  166.1164  242.4117  199.3200 O   0  0  0  0  0  0  0  0  0  0  0  0
  168.1135  243.7132  199.7683 C   0  0  0  0  0  0  0  0  0  0  0  0
  168.7190  244.8400  200.3342 C   0  0  0  0  0  0  0  0  0  0  0  0
  166.6566  241.7024  198.8384 H   0  0  0  0  0  0  0  0  0  0  0  0
  168.6256  248.1293  200.6282 C   0  0  0  0  0  0  0  0  0  0  0  0
  168.3280  247.9135  199.4240 O   0  0  0  0  0  0  0  0  0  0  0  0
  169.0144  249.4475  201.0379 N   0  0  0  0  0  0  0  0  0  0  0  0
  168.6410  249.7843  201.9553 H   0  0  0  0  0  0  0  0  0  0  0  0
  170.1613  250.1859  200.4840 C   0  0  0  0  0  0  0  0  0  0  0  0
  170.6095  251.2248  201.4846 C   0  0  0  0  0  0  0  0  0  0  0  0
  169.7622  251.8417  202.1919 O   0  0  0  0  0  0  0  0  0  0  0  0
  172.0070  251.5182  201.6197 N   0  0  0  0  0  0  0  0  0  0  0  0
  172.6912  250.8557  201.1879 H   0  0  0  0  0  0  0  0  0  0  0  0
  172.4827  252.8582  201.9822 C   0  0  0  0  0  0  0  0  0  0  0  0
  173.5953  252.7493  202.9969 C   0  0  0  0  0  0  0  0  0  0  0  0
  173.5910  253.5051  204.0043 O   0  0  0  0  0  0  0  0  0  0  0  0
  174.6174  251.7461  202.8514 N   0  0  0  0  0  0  0  0  0  0  0  0
  174.5346  251.0928  202.0365 H   0  0  0  0  0  0  0  0  0  0  0  0
  175.5657  251.4380  203.9349 C   0  0  0  0  0  0  0  0  0  0  0  0
  176.9860  251.3076  203.4229 C   0  0  0  0  0  0  0  0  0  0  0  0
  177.2708  250.3776  202.6200 O   0  0  0  0  0  0  0  0  0  0  0  0
  178.0581  252.1244  203.9316 N   0  0  0  0  0  0  0  0  0  0  0  0
  178.9736  251.6375  204.0814 H   0  0  0  0  0  0  0  0  0  0  0  0
  178.0963  253.5983  203.9409 C   0  0  0  0  0  0  0  0  0  0  0  0
  177.7649  254.1722  202.5817 C   0  0  0  0  0  0  0  0  0  0  0  0
  176.5762  254.4570  202.2933 O   0  0  0  0  0  0  0  0  0  0  0  0
  178.7639  254.2813  201.5585 N   0  0  0  0  0  0  0  0  0  0  0  0
  179.5310  255.4940  201.3331 C   0  0  0  0  0  0  0  0  0  0  0  0
  180.1155  255.3556  199.9350 C   0  0  0  0  0  0  0  0  0  0  0  0
  180.0344  253.8674  199.6022 C   0  0  0  0  0  0  0  0  0  0  0  0
  178.9183  253.3073  200.4856 C   0  0  0  0  0  0  0  0  0  0  0  0
  177.6391  253.1496  199.7101 C   0  0  0  0  0  0  0  0  0  0  0  0
  176.6519  252.2954  200.1801 O   0  0  0  0  0  0  0  0  0  0  0  0
  177.4761  253.7650  198.6224 O   0  0  0  0  0  0  0  0  0  0  0  0
  175.7898  252.1637  199.6653 H   0  0  0  0  0  0  0  0  0  0  0  0
  177.2141  254.1716  205.0687 C   0  0  0  0  0  0  0  0  0  0  0  0
  177.6663  253.4970  206.7030 S   0  0  0  0  0  0  0  0  0  0  0  0
  178.9989  253.9326  206.6612 H   0  0  0  0  0  0  0  0  0  0  0  0
  175.1223  250.1523  204.6661 C   0  0  0  0  0  0  0  0  0  0  0  0
  174.6359  250.4205  206.0671 C   0  0  0  0  0  0  0  0  0  0  0  0
  174.2644  249.4792  206.9997 C   0  0  0  0  0  0  0  0  0  0  0  0
  173.8529  250.1044  208.1197 N   0  0  0  0  0  0  0  0  0  0  0  0
  173.9745  251.4184  207.8335 C   0  0  0  0  0  0  0  0  0  0  0  0
  174.4481  251.6432  206.5944 N   0  0  0  0  0  0  0  0  0  0  0  0
  174.5905  252.5676  206.1301 H   0  0  0  0  0  0  0  0  0  0  0  0
  172.9884  253.5985  200.7258 C   0  0  0  0  0  0  0  0  0  0  0  0
  173.2565  252.6436  199.5500 C   0  0  0  0  0  0  0  0  0  0  0  0
  173.9560  253.3514  198.4227 C   0  0  0  0  0  0  0  0  0  0  0  0
  173.9298  252.8618  197.2620 O   0  0  0  0  0  0  0  0  0  0  0  0
  174.6596  254.5724  198.6600 N   0  0  0  0  0  0  0  0  0  0  0  0
  175.1076  255.0855  197.8683 H   0  0  0  0  0  0  0  0  0  0  0  0
  174.7487  254.9659  199.6223 H   0  0  0  0  0  0  0  0  0  0  0  0
  169.8852  250.7897  199.0834 C   0  0  0  0  0  0  0  0  0  0  0  0
  170.7791  250.1775  197.9913 C   0  0  0  0  0  0  0  0  0  0  0  0
  170.9123  251.0772  196.7493 C   0  0  0  0  0  0  0  0  0  0  0  0
  170.5435  252.5584  196.9761 C   0  0  0  0  0  0  0  0  0  0  0  0
  171.2840  253.4644  196.0947 N   0  0  0  0  0  0  0  0  0  0  0  0
  170.9307  253.3477  195.1152 H   0  0  0  0  0  0  0  0  0  0  0  0
  172.2917  253.2045  196.1049 H   0  0  0  0  0  0  0  0  0  0  0  0
  168.4796  247.0024  204.1383 C   0  0  0  0  0  0  0  0  0  0  0  0
  168.7880  245.7965  204.3336 O   0  0  0  0  0  0  0  0  0  0  0  0
  167.9535  247.4093  202.8725 N   0  0  0  0  0  0  0  0  0  0  0  0
  167.2005  248.1359  202.8490 H   0  0  0  0  0  0  0  0  0  0  0  0
  168.8590  248.0485  205.1452 C   0  0  0  0  0  0  0  0  0  0  0  0
  169.3494  247.0876  207.4539 C   0  0  0  0  0  0  0  0  0  0  0  0
  168.9822  246.1366  208.2037 O   0  0  0  0  0  0  0  0  0  0  0  0
  168.4294  247.5849  206.4671 N   0  0  0  0  0  0  0  0  0  0  0  0
  167.4323  247.3015  206.5814 H   0  0  0  0  0  0  0  0  0  0  0  0
  170.6946  247.7480  207.6702 C   0  0  0  0  0  0  0  0  0  0  0  0
  172.6764  246.1715  207.5914 C   0  0  0  0  0  0  0  0  0  0  0  0
  172.5275  245.9928  206.3510 O   0  0  0  0  0  0  0  0  0  0  0  0
  171.6578  246.8592  208.3364 N   0  0  0  0  0  0  0  0  0  0  0  0
  171.6512  246.7440  209.3727 H   0  0  0  0  0  0  0  0  0  0  0  0
  173.9214  245.6910  208.2987 C   0  0  0  0  0  0  0  0  0  0  0  0
  174.0976  244.1924  208.0561 C   0  0  0  0  0  0  0  0  0  0  0  0
  175.0757  246.1261  210.5357 C   0  0  0  0  0  0  0  0  0  0  0  0
  176.2062  245.8716  210.0385 O   0  0  0  0  0  0  0  0  0  0  0  0
  173.8847  245.9704  209.7448 N   0  0  0  0  0  0  0  0  0  0  0  0
  172.9758  246.1088  210.2352 H   0  0  0  0  0  0  0  0  0  0  0  0
  174.9832  246.5935  211.9673 C   0  0  0  0  0  0  0  0  0  0  0  0
  175.4171  245.2268  214.0601 C   0  0  0  0  0  0  0  0  0  0  0  0
  174.8054  245.3376  215.1592 O   0  0  0  0  0  0  0  0  0  0  0  0
  174.6954  245.4535  212.8437 N   0  0  0  0  0  0  0  0  0  0  0  0
  173.7279  245.0727  212.8170 H   0  0  0  0  0  0  0  0  0  0  0  0
  176.8436  244.7029  214.0769 C   0  0  0  0  0  0  0  0  0  0  0  0
  177.8295  246.0520  215.9544 C   0  0  0  0  0  0  0  0  0  0  0  0
  177.9413  245.1448  216.8244 O   0  0  0  0  0  0  0  0  0  0  0  0
  177.7991  245.6985  214.5676 N   0  0  0  0  0  0  0  0  0  0  0  0
  178.4978  246.1324  213.9273 H   0  0  0  0  0  0  0  0  0  0  0  0
  178.5951  247.8463  217.4289 N   0  0  0  0  0  0  0  0  0  0  0  0
  177.6339  247.4932  216.3755 C   0  0  0  0  0  0  0  0  0  0  0  0
  178.3527  248.7989  217.7897 H   0  0  0  0  0  0  0  0  0  0  0  0
  178.4589  247.1952  218.2348 H   0  0  0  0  0  0  0  0  0  0  0  0
  177.7334  248.4589  215.1738 C   0  0  0  0  0  0  0  0  0  0  0  0
  176.4344  248.7266  214.6984 O   0  0  0  0  0  0  0  0  0  0  0  0
  178.4241  249.7815  215.5354 C   0  0  0  0  0  0  0  0  0  0  0  0
  176.5350  249.1260  213.7969 H   0  0  0  0  0  0  0  0  0  0  0  0
  177.2652  244.1699  212.6966 C   0  0  0  0  0  0  0  0  0  0  0  0
  176.9015  242.6935  212.4581 C   0  0  0  0  0  0  0  0  0  0  0  0
  176.2052  242.4824  211.1373 C   0  0  0  0  0  0  0  0  0  0  0  0
  176.8531  242.4272  210.0594 O   0  0  0  0  0  0  0  0  0  0  0  0
  174.7878  242.3261  211.1055 N   0  0  0  0  0  0  0  0  0  0  0  0
  174.2967  242.1610  210.2014 H   0  0  0  0  0  0  0  0  0  0  0  0
  174.2312  242.3261  211.9919 H   0  0  0  0  0  0  0  0  0  0  0  0
  173.9865  247.7642  212.2209 C   0  0  0  0  0  0  0  0  0  0  0  0
  172.9513  247.5959  213.3527 C   0  0  0  0  0  0  0  0  0  0  0  0
  171.5527  248.0958  213.0717 C   0  0  0  0  0  0  0  0  0  0  0  0
  170.6551  247.8621  213.9195 O   0  0  0  0  0  0  0  0  0  0  0  0
  171.1954  248.7812  211.8668 N   0  0  0  0  0  0  0  0  0  0  0  0
  171.8338  248.8509  211.0479 H   0  0  0  0  0  0  0  0  0  0  0  0
  170.2167  249.1330  211.7413 H   0  0  0  0  0  0  0  0  0  0  0  0
  170.4996  249.0449  208.4830 C   0  0  0  0  0  0  0  0  0  0  0  0
  169.3608  248.9568  209.3024 O   0  0  0  0  0  0  0  0  0  0  0  0
  169.6586  248.5371  210.1549 H   0  0  0  0  0  0  0  0  0  0  0  0
  168.2374  249.4177  204.8140 C   0  0  0  0  0  0  0  0  0  0  0  0
  169.2081  250.5246  205.1141 C   0  0  0  0  0  0  0  0  0  0  0  0
  168.8842  251.8444  205.3698 C   0  0  0  0  0  0  0  0  0  0  0  0
  170.0209  252.5532  205.5301 N   0  0  0  0  0  0  0  0  0  0  0  0
  171.0093  251.6430  205.3688 C   0  0  0  0  0  0  0  0  0  0  0  0
  170.5436  250.4008  205.1238 N   0  0  0  0  0  0  0  0  0  0  0  0
  171.1100  249.5440  204.9432 H   0  0  0  0  0  0  0  0  0  0  0  0
 95 96  1  0  0  0
 96 91  1  0  0  0
 91 92  2  0  0  0
 91 93  1  0  0  0
 93 90  1  0  0  0
 90103  1  0  0  0
103104  1  0  0  0
104105  1  0  0  0
105106  2  0  0  0
105107  1  0  0  0
 90 86  1  0  0  0
 86 87  2  0  0  0
 86 88  1  0  0  0
 88 85  1  0  0  0
 85110  1  0  0  0
110111  1  0  0  0
111112  1  0  0  0
112113  2  0  0  0
112114  1  0  0  0
 85 81  1  0  0  0
 81 82  2  0  0  0
 81 83  1  0  0  0
 83 79  1  0  0  0
 79 80  1  0  0  0
 79 75  1  0  0  0
 75 76  2  0  0  0
 75 77  1  0  0  0
 77 74  1  0  0  0
 74117  1  0  0  0
117118  1  0  0  0
 74 70  1  0  0  0
 70 71  2  0  0  0
 70 72  1  0  0  0
 72 69  1  0  0  0
 69120  1  0  0  0
120121  1  0  0  0
121122  2  0  0  0
122123  1  0  0  0
123124  2  0  0  0
124125  1  0  0  0
 69 65  1  0  0  0
 65 66  2  0  0  0
 65 67  1  0  0  0
 67  1  1  0  0  0
  1  2  1  0  0  0
  2  3  2  0  0  0
  3  4  1  0  0  0
  4  5  2  0  0  0
  5  6  1  0  0  0
  5  7  1  0  0  0
  7  8  2  0  0  0
  1 10  1  0  0  0
 10 11  2  0  0  0
 10 12  1  0  0  0
 12 14  1  0  0  0
 14 58  1  0  0  0
 58 59  1  0  0  0
 59 60  1  0  0  0
 60 61  1  0  0  0
 61 62  1  0  0  0
 14 15  1  0  0  0
 15 16  2  0  0  0
 15 17  1  0  0  0
 17 19  1  0  0  0
 19 51  1  0  0  0
 51 52  1  0  0  0
 52 53  1  0  0  0
 53 54  2  0  0  0
 53 55  1  0  0  0
 19 20  1  0  0  0
 20 21  2  0  0  0
 20 22  1  0  0  0
 22 24  1  0  0  0
 24 44  1  0  0  0
 44 45  1  0  0  0
 45 46  2  0  0  0
 46 47  1  0  0  0
 47 48  2  0  0  0
 48 49  1  0  0  0
 24 25  1  0  0  0
 25 26  2  0  0  0
 25 27  1  0  0  0
 27 29  1  0  0  0
 29 41  1  0  0  0
 41 42  1  0  0  0
 29 30  1  0  0  0
 30 31  2  0  0  0
 30 32  1  0  0  0
 32 33  1  0  0  0
 33 34  1  0  0  0
 34 35  1  0  0  0
 35 36  1  0  0  0
 36 37  1  0  0  0
 37 38  1  0  0  0
 37 39  2  0  0  0
 96 99  1  0  0  0
 99100  1  0  0  0
 99101  1  0  0  0
125121  1  0  0  0
  8  2  1  0  0  0
 49 45  1  0  0  0
 36 32  1  0  0  0
 95 97  1  0  0  0
 95 98  1  0  0  0
 93 94  1  0  0  0
107108  1  0  0  0
107109  1  0  0  0
 88 89  1  0  0  0
114115  1  0  0  0
114116  1  0  0  0
 83 84  1  0  0  0
 77 78  1  0  0  0
118119  1  0  0  0
 72 73  1  0  0  0
125126  1  0  0  0
 67 68  1  0  0  0
  6  9  1  0  0  0
 12 13  1  0  0  0
 62 63  1  0  0  0
 62 64  1  0  0  0
 17 18  1  0  0  0
 55 56  1  0  0  0
 55 57  1  0  0  0
 22 23  1  0  0  0
 49 50  1  0  0  0
 27 28  1  0  0  0
 42 43  1  0  0  0
 38 40  1  0  0  0
100102  1  0  0  0
M  END
> <minimizedAffinity>
-8.18306

$$$$
