


130133  0  0  0  0  0  0  0  0999 V2000
   14.5406  -19.6609   -3.6640 C   0  0  0  0  0  0  0  0  0  0  0  0
   11.5720  -23.1134   -5.7299 C   0  0  0  0  0  0  0  0  0  0  0  0
    6.6386  -22.9765   -4.9204 C   0  0  0  0  0  0  0  0  0  0  0  0
    3.6700  -26.4290   -6.9863 C   0  0  0  0  0  0  0  0  0  0  0  0
    5.6348  -30.0181   -9.8615 C   0  0  0  0  0  0  0  0  0  0  0  0
   10.5658  -30.1541  -10.6701 C   0  0  0  0  0  0  0  0  0  0  0  0
   13.5344  -26.7017   -8.6042 C   0  0  0  0  0  0  0  0  0  0  0  0
    2.6659  -33.4709  -11.9276 O   0  0  0  0  0  0  0  0  0  0  0  0
    1.7416  -33.4453  -11.7760 H   0  0  0  0  0  0  0  0  0  0  0  0
   16.0782  -16.8249   -7.4812 C   0  0  0  0  0  0  0  0  0  0  0  0
   15.4241  -15.0894  -12.1250 N   0  0  0  0  0  0  0  0  0  0  0  0
   20.3132  -14.6961   -5.8888 O   0  0  0  0  0  0  0  0  0  0  0  0
   14.5903  -15.5085  -12.4385 H   0  0  0  0  0  0  0  0  0  0  0  0
   16.9620  -12.2521  -15.9446 C   0  0  0  0  0  0  0  0  0  0  0  0
   19.0475   -8.0368  -17.6431 C   0  0  0  0  0  0  0  0  0  0  0  0
   19.3165   -3.0437  -17.6704 N   0  0  0  0  0  0  0  0  0  0  0  0
   15.5379   -6.5343  -14.4144 O   0  0  0  0  0  0  0  0  0  0  0  0
   18.6254   -2.7478  -17.0347 H   0  0  0  0  0  0  0  0  0  0  0  0
   21.4021    1.1718  -19.3690 C   0  0  0  0  0  0  0  0  0  0  0  0
   25.4785    3.8430  -20.4759 C   0  0  0  0  0  0  0  0  0  0  0  0
   28.9311    7.2168  -19.1714 N   0  0  0  0  0  0  0  0  0  0  0  0
   26.6878    2.4891  -25.1350 O   0  0  0  0  0  0  0  0  0  0  0  0
   28.6930    7.4833  -18.2541 H   0  0  0  0  0  0  0  0  0  0  0  0
   33.0095    9.8897  -20.2783 C   0  0  0  0  0  0  0  0  0  0  0  0
   37.6899   11.2911  -19.2129 C   0  0  0  0  0  0  0  0  0  0  0  0
   41.0716   12.9489  -15.9236 N   0  0  0  0  0  0  0  0  0  0  0  0
   35.1812   11.7864  -14.9164 O   0  0  0  0  0  0  0  0  0  0  0  0
   40.5777   13.0464  -15.0776 H   0  0  0  0  0  0  0  0  0  0  0  0
   45.7519   14.3503  -14.8583 C   0  0  0  0  0  0  0  0  0  0  0  0
   49.8341   13.9859  -11.9979 C   0  0  0  0  0  0  0  0  0  0  0  0
   52.3516   11.7327   -8.3116 N   0  0  0  0  0  0  0  0  0  0  0  0
   56.4356   11.3677   -5.4495 C   0  0  0  0  0  0  0  0  0  0  0  0
   52.8606   17.6338  -13.5904 O   0  0  0  0  0  0  0  0  0  0  0  0
   55.5240    7.5307   -2.3749 C   0  0  0  0  0  0  0  0  0  0  0  0
   49.3253    8.0850   -6.7192 C   0  0  0  0  0  0  0  0  0  0  0  0
   51.1939    5.0496   -2.6914 C   0  0  0  0  0  0  0  0  0  0  0  0
   58.9533    9.1145   -1.7631 C   0  0  0  0  0  0  0  0  0  0  0  0
   57.3815    5.3985   -4.7160 O   0  0  0  0  0  0  0  0  0  0  0  0
   61.5740    7.4612    2.1622 O   0  0  0  0  0  0  0  0  0  0  0  0
   61.9195    8.0702    2.7849 H   0  0  0  0  0  0  0  0  0  0  0  0
   49.0156   17.5726  -16.8477 C   0  0  0  0  0  0  0  0  0  0  0  0
   53.8883   16.4589  -16.9446 S   0  0  0  0  0  0  0  0  0  0  0  0
   54.3265   15.2789  -16.4296 H   0  0  0  0  0  0  0  0  0  0  0  0
   36.2843    8.8172  -16.6544 C   0  0  0  0  0  0  0  0  0  0  0  0
   34.7007    6.7384  -12.3910 C   0  0  0  0  0  0  0  0  0  0  0  0
   35.8457    3.8492  -16.3077 N   0  0  0  0  0  0  0  0  0  0  0  0
   33.5334    2.6690   -9.7305 C   0  0  0  0  0  0  0  0  0  0  0  0
   34.6784   -0.2201  -13.6473 N   0  0  0  0  0  0  0  0  0  0  0  0
   36.2540   -0.6881  -18.3707 C   0  0  0  0  0  0  0  0  0  0  0  0
   36.1260    4.4761  -17.0133 H   0  0  0  0  0  0  0  0  0  0  0  0
   34.5148   -1.1413  -13.3409 H   0  0  0  0  0  0  0  0  0  0  0  0
   16.4722    1.9685  -19.6308 C   0  0  0  0  0  0  0  0  0  0  0  0
   13.2889   -1.8316  -18.9738 C   0  0  0  0  0  0  0  0  0  0  0  0
   14.9824   -6.5368  -18.9667 C   0  0  0  0  0  0  0  0  0  0  0  0
   13.8714   -9.5864  -15.1624 N   0  0  0  0  0  0  0  0  0  0  0  0
   17.7855   -8.1915  -22.7618 O   0  0  0  0  0  0  0  0  0  0  0  0
   14.2046  -10.5128  -15.1606 H   0  0  0  0  0  0  0  0  0  0  0  0
   13.3194   -9.2604  -14.4152 H   0  0  0  0  0  0  0  0  0  0  0  0
   18.8166   -8.1202  -13.8245 C   0  0  0  0  0  0  0  0  0  0  0  0
   23.6128   -6.8902  -14.5242 C   0  0  0  0  0  0  0  0  0  0  0  0
   24.8877   -2.1071  -15.2335 C   0  0  0  0  0  0  0  0  0  0  0  0
   24.5741    1.1491  -11.4518 C   0  0  0  0  0  0  0  0  0  0  0  0
   27.0585    0.2854   -7.1987 N   0  0  0  0  0  0  0  0  0  0  0  0
   26.9949    0.9493   -6.4271 H   0  0  0  0  0  0  0  0  0  0  0  0
   27.6290   -0.5547   -7.1029 H   0  0  0  0  0  0  0  0  0  0  0  0
   27.5653    0.1092   -6.3313 H   0  0  0  0  0  0  0  0  0  0  0  0
   17.0197  -21.3282    5.5224 C   0  0  0  0  0  0  0  0  0  0  0  0
   14.5391  -20.7110    1.2249 N   0  0  0  0  0  0  0  0  0  0  0  0
   12.2244  -22.1645    6.6647 O   0  0  0  0  0  0  0  0  0  0  0  0
   13.5949  -20.8757    1.4498 H   0  0  0  0  0  0  0  0  0  0  0  0
   17.0182  -22.3783   10.4114 C   0  0  0  0  0  0  0  0  0  0  0  0
   19.7600  -17.8270   18.4789 C   0  0  0  0  0  0  0  0  0  0  0  0
   18.3570  -21.2246   15.0891 N   0  0  0  0  0  0  0  0  0  0  0  0
   19.8842  -13.4915   15.9909 O   0  0  0  0  0  0  0  0  0  0  0  0
   18.3326  -22.0782   15.5789 H   0  0  0  0  0  0  0  0  0  0  0  0
   21.0981  -16.6746   23.1544 C   0  0  0  0  0  0  0  0  0  0  0  0
   25.9829   -9.5508   27.4799 C   0  0  0  0  0  0  0  0  0  0  0  0
   23.7659  -13.8834   26.3319 N   0  0  0  0  0  0  0  0  0  0  0  0
   26.8537  -12.5286   31.4007 O   0  0  0  0  0  0  0  0  0  0  0  0
   23.9373  -14.4697   27.1039 H   0  0  0  0  0  0  0  0  0  0  0  0
   28.6506   -6.7596   30.6573 C   0  0  0  0  0  0  0  0  0  0  0  0
   31.6103   -7.3721   26.6743 C   0  0  0  0  0  0  0  0  0  0  0  0
   37.0011   -1.9158   30.3035 C   0  0  0  0  0  0  0  0  0  0  0  0
   32.8503   -4.2855   31.7731 N   0  0  0  0  0  0  0  0  0  0  0  0
   36.9065   -2.1176   25.3082 O   0  0  0  0  0  0  0  0  0  0  0  0
   32.8689   -4.2457   32.7567 H   0  0  0  0  0  0  0  0  0  0  0  0
   41.1985    0.5571   31.4194 C   0  0  0  0  0  0  0  0  0  0  0  0
   50.1925    0.8253   27.9046 C   0  0  0  0  0  0  0  0  0  0  0  0
   46.0910    1.3191   30.7220 N   0  0  0  0  0  0  0  0  0  0  0  0
   51.7208    3.2517   32.0005 O   0  0  0  0  0  0  0  0  0  0  0  0
   46.3920    1.7969   31.5285 H   0  0  0  0  0  0  0  0  0  0  0  0
   55.0850    1.5874   27.2072 C   0  0  0  0  0  0  0  0  0  0  0  0
   63.2138   -3.6307   27.0897 C   0  0  0  0  0  0  0  0  0  0  0  0
   59.6588   -0.2085   26.2803 N   0  0  0  0  0  0  0  0  0  0  0  0
   61.2454   -6.7727   30.4447 O   0  0  0  0  0  0  0  0  0  0  0  0
   60.0464    0.4101   25.6197 H   0  0  0  0  0  0  0  0  0  0  0  0
   72.5067   -6.0643   24.6469 N   0  0  0  0  0  0  0  0  0  0  0  0
   67.7853   -5.4251   26.1628 C   0  0  0  0  0  0  0  0  0  0  0  0
   72.9795   -5.3258   24.1259 H   0  0  0  0  0  0  0  0  0  0  0  0
   72.9972   -6.9332   24.8586 H   0  0  0  0  0  0  0  0  0  0  0  0
   73.4699   -6.1947   24.3376 H   0  0  0  0  0  0  0  0  0  0  0  0
   67.8353   -9.9745   28.2366 C   0  0  0  0  0  0  0  0  0  0  0  0
   67.8853  -14.5238   30.3104 C   0  0  0  0  0  0  0  0  0  0  0  0
   72.5327   -9.2216   29.7749 O   0  0  0  0  0  0  0  0  0  0  0  0
   72.9799   -8.3843   29.5757 H   0  0  0  0  0  0  0  0  0  0  0  0
   54.4692   -3.3546   26.7636 C   0  0  0  0  0  0  0  0  0  0  0  0
   51.6584   -7.4420   27.3955 C   0  0  0  0  0  0  0  0  0  0  0  0
   51.5080   -9.7065   31.8515 C   0  0  0  0  0  0  0  0  0  0  0  0
   48.4459  -13.5926   32.5772 N   0  0  0  0  0  0  0  0  0  0  0  0
   54.4183   -8.0855   35.5799 O   0  0  0  0  0  0  0  0  0  0  0  0
   48.4160  -14.0387   33.4543 H   0  0  0  0  0  0  0  0  0  0  0  0
   47.8729  -13.9117   31.8429 H   0  0  0  0  0  0  0  0  0  0  0  0
   39.8603    3.8639   34.9228 C   0  0  0  0  0  0  0  0  0  0  0  0
   41.0224    7.6530   37.9700 C   0  0  0  0  0  0  0  0  0  0  0  0
   39.0957    7.8377   42.5795 C   0  0  0  0  0  0  0  0  0  0  0  0
   35.6098    4.5343   43.9683 N   0  0  0  0  0  0  0  0  0  0  0  0
   40.6558   11.3278   45.8019 O   0  0  0  0  0  0  0  0  0  0  0  0
   35.2307    4.5711   44.8761 H   0  0  0  0  0  0  0  0  0  0  0  0
   35.3025    3.8470   43.3339 H   0  0  0  0  0  0  0  0  0  0  0  0
   19.9126  -18.3933   27.6983 C   0  0  0  0  0  0  0  0  0  0  0  0
   15.1409  -19.3652   28.8353 O   0  0  0  0  0  0  0  0  0  0  0  0
   14.9105  -19.6987   29.7166 H   0  0  0  0  0  0  0  0  0  0  0  0
   19.6076  -18.1206   10.0033 C   0  0  0  0  0  0  0  0  0  0  0  0
   23.2990  -15.4817    7.9050 C   0  0  0  0  0  0  0  0  0  0  0  0
   23.9636  -17.5732   12.3974 N   0  0  0  0  0  0  0  0  0  0  0  0
   27.9448  -13.6415    8.0744 C   0  0  0  0  0  0  0  0  0  0  0  0
   28.6094  -15.7330   12.5668 N   0  0  0  0  0  0  0  0  0  0  0  0
   26.8618  -18.4640   16.3716 C   0  0  0  0  0  0  0  0  0  0  0  0
   23.1139  -18.0298   12.5942 H   0  0  0  0  0  0  0  0  0  0  0  0
   29.5269  -15.4897   12.8281 H   0  0  0  0  0  0  0  0  0  0  0  0
 97 98  1  0  0  0
 97 99  1  0  0  0
 97100  1  0  0  0
 97101  1  0  0  0
 98102  1  0  0  0
 98 93  1  0  0  0
102103  1  0  0  0
102104  1  0  0  0
104105  1  0  0  0
 93 94  1  0  0  0
 93 95  2  0  0  0
 94 92  1  0  0  0
 94 96  1  0  0  0
 92 88  1  0  0  0
 92106  1  0  0  0
 88 89  1  0  0  0
 88 90  2  0  0  0
 89 87  1  0  0  0
 89 91  1  0  0  0
 87 83  1  0  0  0
 87113  1  0  0  0
 83 84  1  0  0  0
 83 85  2  0  0  0
 84 81  1  0  0  0
 84 86  1  0  0  0
 81 77  1  0  0  0
 81 82  1  0  0  0
 77 78  1  0  0  0
 77 79  2  0  0  0
 78 76  1  0  0  0
 78 80  1  0  0  0
 76 72  1  0  0  0
 76120  1  0  0  0
 72 73  1  0  0  0
 72 74  2  0  0  0
 73 71  1  0  0  0
 73 75  1  0  0  0
 71 67  1  0  0  0
 71123  1  0  0  0
106107  1  0  0  0
107108  1  0  0  0
108109  1  0  0  0
108110  2  0  0  0
109111  1  0  0  0
109112  1  0  0  0
113114  1  0  0  0
114115  1  0  0  0
115116  1  0  0  0
115117  2  0  0  0
116118  1  0  0  0
116119  1  0  0  0
120121  1  0  0  0
121122  1  0  0  0
 67 68  1  0  0  0
 67 69  2  0  0  0
 68  1  1  0  0  0
 68 70  1  0  0  0
  1 10  1  0  0  0
  1  2  1  0  0  0
 10 11  1  0  0  0
 10 12  2  0  0  0
 11 14  1  0  0  0
 11 13  1  0  0  0
 14 15  1  0  0  0
 14 59  1  0  0  0
 15 16  1  0  0  0
 15 17  2  0  0  0
 16 19  1  0  0  0
 16 18  1  0  0  0
 19 20  1  0  0  0
 19 52  1  0  0  0
123124  1  0  0  0
124125  1  0  0  0
124126  2  0  0  0
125128  1  0  0  0
125129  1  0  0  0
126127  1  0  0  0
127128  2  0  0  0
127130  1  0  0  0
  2  3  2  0  0  0
  3  4  1  0  0  0
  4  5  2  0  0  0
  5  6  1  0  0  0
  5  8  1  0  0  0
  6  7  2  0  0  0
  7  2  1  0  0  0
  8  9  1  0  0  0
 59 60  1  0  0  0
 60 61  1  0  0  0
 61 62  1  0  0  0
 62 63  1  0  0  0
 63 64  1  0  0  0
 63 65  1  0  0  0
 63 66  1  0  0  0
 20 21  1  0  0  0
 20 22  2  0  0  0
 21 24  1  0  0  0
 21 23  1  0  0  0
 24 25  1  0  0  0
 24 44  1  0  0  0
 25 26  1  0  0  0
 25 27  2  0  0  0
 26 29  1  0  0  0
 26 28  1  0  0  0
 29 30  1  0  0  0
 29 41  1  0  0  0
 30 31  1  0  0  0
 30 33  2  0  0  0
 31 32  1  0  0  0
 31 35  1  0  0  0
 32 37  1  0  0  0
 32 34  1  0  0  0
 37 38  2  0  0  0
 37 39  1  0  0  0
 52 53  1  0  0  0
 53 54  1  0  0  0
 54 55  1  0  0  0
 54 56  2  0  0  0
 55 57  1  0  0  0
 55 58  1  0  0  0
 44 45  1  0  0  0
 45 46  1  0  0  0
 45 47  2  0  0  0
 46 49  1  0  0  0
 46 50  1  0  0  0
 47 48  1  0  0  0
 48 49  2  0  0  0
 48 51  1  0  0  0
 41 42  1  0  0  0
 42 43  1  0  0  0
 39 40  1  0  0  0
 34 36  1  0  0  0
 35 36  1  0  0  0
M  CHG 1  48   1
M  CHG 1  63   1
M  CHG 1  97   1
M  CHG 1 127   1
M  END
> <minimizedAffinity>
-8.97565

$$$$



130133  0  0  0  0  0  0  0  0999 V2000
   14.4323  -19.6073   -3.5805 C   0  0  0  0  0  0  0  0  0  0  0  0
   11.0284  -22.6989   -5.5440 C   0  0  0  0  0  0  0  0  0  0  0  0
   11.5964  -24.4035  -10.2112 C   0  0  0  0  0  0  0  0  0  0  0  0
    8.1925  -27.4952  -12.1747 C   0  0  0  0  0  0  0  0  0  0  0  0
    4.2207  -28.8822   -9.4708 C   0  0  0  0  0  0  0  0  0  0  0  0
    3.6538  -27.1779   -4.8059 C   0  0  0  0  0  0  0  0  0  0  0  0
    7.0577  -24.0863   -2.8424 C   0  0  0  0  0  0  0  0  0  0  0  0
    0.8166  -31.9741  -11.4344 O   0  0  0  0  0  0  0  0  0  0  0  0
    0.9229  -32.2935  -12.3089 H   0  0  0  0  0  0  0  0  0  0  0  0
   16.0703  -16.8732   -7.4302 C   0  0  0  0  0  0  0  0  0  0  0  0
   15.4919  -15.1910  -12.1035 N   0  0  0  0  0  0  0  0  0  0  0  0
   20.3534  -14.8385   -5.8434 O   0  0  0  0  0  0  0  0  0  0  0  0
   14.6486  -15.5916  -12.4159 H   0  0  0  0  0  0  0  0  0  0  0  0
   17.1303  -12.4557  -15.9555 C   0  0  0  0  0  0  0  0  0  0  0  0
   19.2708   -8.2909  -17.7094 C   0  0  0  0  0  0  0  0  0  0  0  0
   19.5390   -3.3006  -17.8790 N   0  0  0  0  0  0  0  0  0  0  0  0
   15.6533   -6.6961  -14.6485 O   0  0  0  0  0  0  0  0  0  0  0  0
   18.8267   -2.9866  -17.2762 H   0  0  0  0  0  0  0  0  0  0  0  0
   21.6796    0.8643  -19.6329 C   0  0  0  0  0  0  0  0  0  0  0  0
   25.7853    3.4172  -20.8993 C   0  0  0  0  0  0  0  0  0  0  0  0
   29.1653    6.9606  -19.8875 N   0  0  0  0  0  0  0  0  0  0  0  0
   27.1915    1.5067  -25.3010 O   0  0  0  0  0  0  0  0  0  0  0  0
   28.8885    7.3368  -19.0208 H   0  0  0  0  0  0  0  0  0  0  0  0
   33.2731    9.5152  -21.1540 C   0  0  0  0  0  0  0  0  0  0  0  0
   37.8013   11.2881  -19.9894 C   0  0  0  0  0  0  0  0  0  0  0  0
   40.8209   13.7120  -16.8253 N   0  0  0  0  0  0  0  0  0  0  0  0
   34.8867   12.5458  -16.1265 O   0  0  0  0  0  0  0  0  0  0  0  0
   40.2470   13.9596  -16.0647 H   0  0  0  0  0  0  0  0  0  0  0  0
   45.3491   15.4848  -15.6608 C   0  0  0  0  0  0  0  0  0  0  0  0
   49.0960   15.9734  -12.3896 C   0  0  0  0  0  0  0  0  0  0  0  0
   51.1941   14.8083   -8.0028 N   0  0  0  0  0  0  0  0  0  0  0  0
   54.9427   15.2967   -4.7296 C   0  0  0  0  0  0  0  0  0  0  0  0
   52.2847   19.1680  -14.5412 O   0  0  0  0  0  0  0  0  0  0  0  0
   53.6951   12.3549   -0.8830 C   0  0  0  0  0  0  0  0  0  0  0  0
   48.0056   11.6138   -5.8513 C   0  0  0  0  0  0  0  0  0  0  0  0
   49.4200    9.7637   -1.0031 C   0  0  0  0  0  0  0  0  0  0  0  0
   57.0408   14.1316   -0.3427 C   0  0  0  0  0  0  0  0  0  0  0  0
   53.6093   17.6014    0.7453 O   0  0  0  0  0  0  0  0  0  0  0  0
   59.5116   12.5482    3.7068 O   0  0  0  0  0  0  0  0  0  0  0  0
   60.1799   11.8968    3.6230 H   0  0  0  0  0  0  0  0  0  0  0  0
   48.7935   18.2178  -18.0400 C   0  0  0  0  0  0  0  0  0  0  0  0
   53.6522   17.2363  -17.3901 S   0  0  0  0  0  0  0  0  0  0  0  0
   54.0374   16.2255  -16.5658 H   0  0  0  0  0  0  0  0  0  0  0  0
   36.2126    9.3277  -17.1128 C   0  0  0  0  0  0  0  0  0  0  0  0
   34.2894    8.0319  -12.6824 C   0  0  0  0  0  0  0  0  0  0  0  0
   35.9239    4.5052  -15.8272 N   0  0  0  0  0  0  0  0  0  0  0  0
   33.0129    4.4984   -9.3832 C   0  0  0  0  0  0  0  0  0  0  0  0
   34.6473    0.9717  -12.5280 N   0  0  0  0  0  0  0  0  0  0  0  0
   36.7016   -0.3166  -16.9021 C   0  0  0  0  0  0  0  0  0  0  0  0
   36.2499    4.9977  -16.6149 H   0  0  0  0  0  0  0  0  0  0  0  0
   34.4878    0.1199  -12.0608 H   0  0  0  0  0  0  0  0  0  0  0  0
   16.7708    1.8183  -19.6649 C   0  0  0  0  0  0  0  0  0  0  0  0
   13.4974   -1.9075  -19.0250 C   0  0  0  0  0  0  0  0  0  0  0  0
   14.2595   -6.3147  -21.2619 C   0  0  0  0  0  0  0  0  0  0  0  0
   10.6141   -9.7367  -21.3474 N   0  0  0  0  0  0  0  0  0  0  0  0
   18.6648   -7.2992  -23.4119 O   0  0  0  0  0  0  0  0  0  0  0  0
   10.7637  -10.6044  -21.7877 H   0  0  0  0  0  0  0  0  0  0  0  0
    9.7467   -9.5426  -20.9240 H   0  0  0  0  0  0  0  0  0  0  0  0
   18.9491   -8.2773  -13.8965 C   0  0  0  0  0  0  0  0  0  0  0  0
   23.7165   -6.9814  -14.6695 C   0  0  0  0  0  0  0  0  0  0  0  0
   24.9326   -2.1672  -15.2621 C   0  0  0  0  0  0  0  0  0  0  0  0
   24.4440    1.0214  -11.4415 C   0  0  0  0  0  0  0  0  0  0  0  0
   27.0887    0.3278   -7.2545 N   0  0  0  0  0  0  0  0  0  0  0  0
   26.9893    0.9779   -6.4750 H   0  0  0  0  0  0  0  0  0  0  0  0
   27.7275   -0.4639   -7.1801 H   0  0  0  0  0  0  0  0  0  0  0  0
   27.6281    0.1862   -6.4006 H   0  0  0  0  0  0  0  0  0  0  0  0
   17.1289  -21.3191    5.5363 C   0  0  0  0  0  0  0  0  0  0  0  0
   14.5556  -20.7422    1.2879 N   0  0  0  0  0  0  0  0  0  0  0  0
   12.3957  -22.3971    6.7338 O   0  0  0  0  0  0  0  0  0  0  0  0
   13.6236  -20.9544    1.5237 H   0  0  0  0  0  0  0  0  0  0  0  0
   17.2522  -22.4540   10.4046 C   0  0  0  0  0  0  0  0  0  0  0  0
   20.0920  -18.0109   18.4986 C   0  0  0  0  0  0  0  0  0  0  0  0
   18.6910  -21.3694   15.0692 N   0  0  0  0  0  0  0  0  0  0  0  0
   20.0192  -13.6174   16.1124 O   0  0  0  0  0  0  0  0  0  0  0  0
   18.7053  -22.2345   15.5390 H   0  0  0  0  0  0  0  0  0  0  0  0
   21.5299  -16.9276   23.1609 C   0  0  0  0  0  0  0  0  0  0  0  0
   25.9174   -9.5668   27.6204 C   0  0  0  0  0  0  0  0  0  0  0  0
   24.0908  -14.0429   26.3428 N   0  0  0  0  0  0  0  0  0  0  0  0
   27.3359  -12.6412   31.2994 O   0  0  0  0  0  0  0  0  0  0  0  0
   24.3701  -14.6482   27.0672 H   0  0  0  0  0  0  0  0  0  0  0  0
   28.4782   -6.6820   30.8023 C   0  0  0  0  0  0  0  0  0  0  0  0
   31.4590   -7.1768   26.8186 C   0  0  0  0  0  0  0  0  0  0  0  0
   36.6718   -1.5766   30.4586 C   0  0  0  0  0  0  0  0  0  0  0  0
   32.5819   -4.0534   31.9222 N   0  0  0  0  0  0  0  0  0  0  0  0
   36.6451   -1.8699   25.4669 O   0  0  0  0  0  0  0  0  0  0  0  0
   32.5871   -3.9956   32.9050 H   0  0  0  0  0  0  0  0  0  0  0  0
   40.7732    1.0507   31.5785 C   0  0  0  0  0  0  0  0  0  0  0  0
   49.7964    1.5486   28.1649 C   0  0  0  0  0  0  0  0  0  0  0  0
   45.6468    1.9588   30.9248 N   0  0  0  0  0  0  0  0  0  0  0  0
   51.1952    4.0955   32.2338 O   0  0  0  0  0  0  0  0  0  0  0  0
   45.9222    2.4603   31.7259 H   0  0  0  0  0  0  0  0  0  0  0  0
   54.6700    2.4567   27.5112 C   0  0  0  0  0  0  0  0  0  0  0  0
   63.0429   -2.3558   27.7434 C   0  0  0  0  0  0  0  0  0  0  0  0
   59.3104    0.7941   26.6705 N   0  0  0  0  0  0  0  0  0  0  0  0
   61.2888   -5.2293   31.4406 O   0  0  0  0  0  0  0  0  0  0  0  0
   59.6557    1.3598   25.9426 H   0  0  0  0  0  0  0  0  0  0  0  0
   72.4021   -4.5826   25.3571 N   0  0  0  0  0  0  0  0  0  0  0  0
   67.6810   -4.0170   26.9027 C   0  0  0  0  0  0  0  0  0  0  0  0
   72.8293   -3.8791   24.7547 H   0  0  0  0  0  0  0  0  0  0  0  0
   72.9381   -5.4015   25.6442 H   0  0  0  0  0  0  0  0  0  0  0  0
   73.3653   -4.6980   25.0418 H   0  0  0  0  0  0  0  0  0  0  0  0
   67.9889   -8.3260   29.4201 C   0  0  0  0  0  0  0  0  0  0  0  0
   68.2968  -12.6349   31.9376 C   0  0  0  0  0  0  0  0  0  0  0  0
   72.6721   -7.2053   30.7655 O   0  0  0  0  0  0  0  0  0  0  0  0
   73.0746   -6.3727   30.4730 H   0  0  0  0  0  0  0  0  0  0  0  0
   54.2194   -2.5099   27.1500 C   0  0  0  0  0  0  0  0  0  0  0  0
   55.5602   -7.0977   28.6197 C   0  0  0  0  0  0  0  0  0  0  0  0
   58.8173   -7.6673   32.3712 C   0  0  0  0  0  0  0  0  0  0  0  0
   59.9023  -12.2457   34.0644 N   0  0  0  0  0  0  0  0  0  0  0  0
   60.9883   -3.6607   34.4282 O   0  0  0  0  0  0  0  0  0  0  0  0
   60.5435  -12.3582   34.8030 H   0  0  0  0  0  0  0  0  0  0  0  0
   59.4747  -13.0345   33.6593 H   0  0  0  0  0  0  0  0  0  0  0  0
   39.2861    4.3739   35.0056 C   0  0  0  0  0  0  0  0  0  0  0  0
   40.2878    8.2521   37.9970 C   0  0  0  0  0  0  0  0  0  0  0  0
   38.2997    8.4560   42.5795 C   0  0  0  0  0  0  0  0  0  0  0  0
   34.4614    5.4846   43.7757 N   0  0  0  0  0  0  0  0  0  0  0  0
   40.1509   11.6328   45.9675 O   0  0  0  0  0  0  0  0  0  0  0  0
   34.0702    5.5251   44.6783 H   0  0  0  0  0  0  0  0  0  0  0  0
   34.0967    4.8590   43.1088 H   0  0  0  0  0  0  0  0  0  0  0  0
   20.6887  -18.9122   27.6732 C   0  0  0  0  0  0  0  0  0  0  0  0
   16.0679  -20.3280   28.9578 O   0  0  0  0  0  0  0  0  0  0  0  0
   15.9043  -20.7131   29.8330 H   0  0  0  0  0  0  0  0  0  0  0  0
   19.7935  -18.1660   10.0109 C   0  0  0  0  0  0  0  0  0  0  0  0
   23.4478  -15.4752    7.9136 C   0  0  0  0  0  0  0  0  0  0  0  0
   24.1541  -17.5883   12.3895 N   0  0  0  0  0  0  0  0  0  0  0  0
   28.0749  -13.5876    8.0746 C   0  0  0  0  0  0  0  0  0  0  0  0
   28.7811  -15.7006   12.5506 N   0  0  0  0  0  0  0  0  0  0  0  0
   27.0789  -18.4740   16.3453 C   0  0  0  0  0  0  0  0  0  0  0  0
   23.3101  -18.0550   12.5871 H   0  0  0  0  0  0  0  0  0  0  0  0
   29.6971  -15.4494   12.8094 H   0  0  0  0  0  0  0  0  0  0  0  0
 97 98  1  0  0  0
 97 99  1  0  0  0
 97100  1  0  0  0
 97101  1  0  0  0
 98102  1  0  0  0
 98 93  1  0  0  0
102103  1  0  0  0
102104  1  0  0  0
104105  1  0  0  0
 93 94  1  0  0  0
 93 95  2  0  0  0
 94 92  1  0  0  0
 94 96  1  0  0  0
 92 88  1  0  0  0
 92106  1  0  0  0
 88 89  1  0  0  0
 88 90  2  0  0  0
 89 87  1  0  0  0
 89 91  1  0  0  0
 87 83  1  0  0  0
 87113  1  0  0  0
 83 84  1  0  0  0
 83 85  2  0  0  0
 84 81  1  0  0  0
 84 86  1  0  0  0
 81 77  1  0  0  0
 81 82  1  0  0  0
 77 78  1  0  0  0
 77 79  2  0  0  0
 78 76  1  0  0  0
 78 80  1  0  0  0
 76 72  1  0  0  0
 76120  1  0  0  0
 72 73  1  0  0  0
 72 74  2  0  0  0
 73 71  1  0  0  0
 73 75  1  0  0  0
 71 67  1  0  0  0
 71123  1  0  0  0
106107  1  0  0  0
107108  1  0  0  0
108109  1  0  0  0
108110  2  0  0  0
109111  1  0  0  0
109112  1  0  0  0
113114  1  0  0  0
114115  1  0  0  0
115116  1  0  0  0
115117  2  0  0  0
116118  1  0  0  0
116119  1  0  0  0
120121  1  0  0  0
121122  1  0  0  0
 67 68  1  0  0  0
 67 69  2  0  0  0
 68  1  1  0  0  0
 68 70  1  0  0  0
  1 10  1  0  0  0
  1  2  1  0  0  0
 10 11  1  0  0  0
 10 12  2  0  0  0
 11 14  1  0  0  0
 11 13  1  0  0  0
 14 15  1  0  0  0
 14 59  1  0  0  0
 15 16  1  0  0  0
 15 17  2  0  0  0
 16 19  1  0  0  0
 16 18  1  0  0  0
 19 20  1  0  0  0
 19 52  1  0  0  0
123124  1  0  0  0
124125  1  0  0  0
124126  2  0  0  0
125128  1  0  0  0
125129  1  0  0  0
126127  1  0  0  0
127128  2  0  0  0
127130  1  0  0  0
  2  3  2  0  0  0
  3  4  1  0  0  0
  4  5  2  0  0  0
  5  6  1  0  0  0
  5  8  1  0  0  0
  6  7  2  0  0  0
  7  2  1  0  0  0
  8  9  1  0  0  0
 59 60  1  0  0  0
 60 61  1  0  0  0
 61 62  1  0  0  0
 62 63  1  0  0  0
 63 64  1  0  0  0
 63 65  1  0  0  0
 63 66  1  0  0  0
 20 21  1  0  0  0
 20 22  2  0  0  0
 21 24  1  0  0  0
 21 23  1  0  0  0
 24 25  1  0  0  0
 24 44  1  0  0  0
 25 26  1  0  0  0
 25 27  2  0  0  0
 26 29  1  0  0  0
 26 28  1  0  0  0
 29 30  1  0  0  0
 29 41  1  0  0  0
 30 31  1  0  0  0
 30 33  2  0  0  0
 31 32  1  0  0  0
 31 35  1  0  0  0
 32 37  1  0  0  0
 32 34  1  0  0  0
 37 38  2  0  0  0
 37 39  1  0  0  0
 52 53  1  0  0  0
 53 54  1  0  0  0
 54 55  1  0  0  0
 54 56  2  0  0  0
 55 57  1  0  0  0
 55 58  1  0  0  0
 44 45  1  0  0  0
 45 46  1  0  0  0
 45 47  2  0  0  0
 46 49  1  0  0  0
 46 50  1  0  0  0
 47 48  1  0  0  0
 48 49  2  0  0  0
 48 51  1  0  0  0
 41 42  1  0  0  0
 42 43  1  0  0  0
 39 40  1  0  0  0
 34 36  1  0  0  0
 35 36  1  0  0  0
M  CHG 1  48   1
M  CHG 1  63   1
M  CHG 1  97   1
M  CHG 1 127   1
M  END
> <minimizedAffinity>
-8.87130

$$$$



130133  0  0  0  0  0  0  0  0999 V2000
   38.3311   -1.5946  -18.6085 C   0  0  0  0  0  0  0  0  0  0  0  0
   37.6748    1.1519  -22.7348 C   0  0  0  0  0  0  0  0  0  0  0  0
   33.4030    0.8094  -25.3128 C   0  0  0  0  0  0  0  0  0  0  0  0
   32.7467    3.5559  -29.4391 C   0  0  0  0  0  0  0  0  0  0  0  0
   36.3622    6.6448  -30.9871 C   0  0  0  0  0  0  0  0  0  0  0  0
   40.6315    6.9865  -28.4097 C   0  0  0  0  0  0  0  0  0  0  0  0
   41.2879    4.2400  -24.2835 C   0  0  0  0  0  0  0  0  0  0  0  0
   35.7058    9.3915  -35.1137 O   0  0  0  0  0  0  0  0  0  0  0  0
   34.9055    9.3274  -35.5968 H   0  0  0  0  0  0  0  0  0  0  0  0
   33.9383   -3.8524  -17.8446 C   0  0  0  0  0  0  0  0  0  0  0  0
   29.9703   -6.3201  -19.6250 N   0  0  0  0  0  0  0  0  0  0  0  0
   33.1130   -3.4495  -12.9294 O   0  0  0  0  0  0  0  0  0  0  0  0
   30.1328   -6.3995  -20.5928 H   0  0  0  0  0  0  0  0  0  0  0  0
   25.5751   -8.5793  -18.8614 C   0  0  0  0  0  0  0  0  0  0  0  0
   22.6997  -11.6615  -16.1715 C   0  0  0  0  0  0  0  0  0  0  0  0
   19.7035  -12.4704  -12.2507 N   0  0  0  0  0  0  0  0  0  0  0  0
   22.4664   -7.2695  -13.7936 O   0  0  0  0  0  0  0  0  0  0  0  0
   19.6576  -11.6056  -11.7825 H   0  0  0  0  0  0  0  0  0  0  0  0
   16.8281  -15.5526   -9.5608 C   0  0  0  0  0  0  0  0  0  0  0  0
   15.8370  -17.8950   -5.2585 C   0  0  0  0  0  0  0  0  0  0  0  0
   16.8865  -18.7311   -0.4415 N   0  0  0  0  0  0  0  0  0  0  0  0
   11.8944  -20.8069   -6.2482 O   0  0  0  0  0  0  0  0  0  0  0  0
   17.6627  -18.1577   -0.2466 H   0  0  0  0  0  0  0  0  0  0  0  0
   15.8954  -21.0743    3.8632 C   0  0  0  0  0  0  0  0  0  0  0  0
   15.6267  -21.0296    8.8562 C   0  0  0  0  0  0  0  0  0  0  0  0
   17.8903  -20.9958   13.3149 N   0  0  0  0  0  0  0  0  0  0  0  0
   20.5189  -21.0506    7.8239 O   0  0  0  0  0  0  0  0  0  0  0  0
   18.8536  -20.9999   13.1116 H   0  0  0  0  0  0  0  0  0  0  0  0
   17.6217  -20.9511   18.3078 C   0  0  0  0  0  0  0  0  0  0  0  0
   17.0982  -18.4305   22.5917 C   0  0  0  0  0  0  0  0  0  0  0  0
   16.9890  -14.0939   25.0788 N   0  0  0  0  0  0  0  0  0  0  0  0
   16.4654  -11.5714   29.3645 C   0  0  0  0  0  0  0  0  0  0  0  0
   16.2972  -21.9356   26.0666 O   0  0  0  0  0  0  0  0  0  0  0  0
   16.9951   -6.7601   28.1089 C   0  0  0  0  0  0  0  0  0  0  0  0
   17.7899  -10.5889   21.6041 C   0  0  0  0  0  0  0  0  0  0  0  0
   17.8525   -5.5006   23.3460 C   0  0  0  0  0  0  0  0  0  0  0  0
   16.3562   -7.2348   31.8517 C   0  0  0  0  0  0  0  0  0  0  0  0
   18.6454  -10.4372   34.9345 O   0  0  0  0  0  0  0  0  0  0  0  0
   15.9425   -2.6537   33.8144 O   0  0  0  0  0  0  0  0  0  0  0  0
   15.5294   -1.9698   33.3249 H   0  0  0  0  0  0  0  0  0  0  0  0
   17.8434  -24.4311   21.8902 C   0  0  0  0  0  0  0  0  0  0  0  0
   22.0673  -25.0871   24.4828 S   0  0  0  0  0  0  0  0  0  0  0  0
   23.1567  -24.3186   24.2136 H   0  0  0  0  0  0  0  0  0  0  0  0
   16.7780  -17.6740    7.4222 C   0  0  0  0  0  0  0  0  0  0  0  0
   21.3105  -15.6007    7.8278 C   0  0  0  0  0  0  0  0  0  0  0  0
   20.6808  -19.7139    5.0558 N   0  0  0  0  0  0  0  0  0  0  0  0
   26.1804  -15.5827    6.6948 C   0  0  0  0  0  0  0  0  0  0  0  0
   25.5507  -19.6960    3.9229 N   0  0  0  0  0  0  0  0  0  0  0  0
   22.5700  -23.2682    2.0880 C   0  0  0  0  0  0  0  0  0  0  0  0
   19.7224  -19.9269    5.1301 H   0  0  0  0  0  0  0  0  0  0  0  0
   26.4449  -19.9022    3.5661 H   0  0  0  0  0  0  0  0  0  0  0  0
   14.6785  -15.3832  -14.0727 C   0  0  0  0  0  0  0  0  0  0  0  0
   11.5156  -18.9954  -15.4705 C   0  0  0  0  0  0  0  0  0  0  0  0
    7.8463  -20.4326  -12.3919 C   0  0  0  0  0  0  0  0  0  0  0  0
    3.1123  -20.4891  -14.0021 N   0  0  0  0  0  0  0  0  0  0  0  0
    8.9105  -21.8125   -7.7056 O   0  0  0  0  0  0  0  0  0  0  0  0
    2.3896  -20.7719  -13.3963 H   0  0  0  0  0  0  0  0  0  0  0  0
    2.9029  -20.2173  -14.9249 H   0  0  0  0  0  0  0  0  0  0  0  0
   26.2354  -11.3395  -14.7442 C   0  0  0  0  0  0  0  0  0  0  0  0
   22.8974  -11.1202  -11.0272 C   0  0  0  0  0  0  0  0  0  0  0  0
   23.3341  -14.1763   -7.0933 C   0  0  0  0  0  0  0  0  0  0  0  0
   27.7178  -14.5867   -4.7232 C   0  0  0  0  0  0  0  0  0  0  0  0
   31.6591  -16.5613   -7.0841 N   0  0  0  0  0  0  0  0  0  0  0  0
   32.5535  -16.6452   -6.6010 H   0  0  0  0  0  0  0  0  0  0  0  0
   31.5687  -16.8802   -8.0487 H   0  0  0  0  0  0  0  0  0  0  0  0
   32.4630  -16.9641   -7.5656 H   0  0  0  0  0  0  0  0  0  0  0  0
   46.4182    0.3431  -13.6930 C   0  0  0  0  0  0  0  0  0  0  0  0
   43.0662   -0.7575  -17.2365 N   0  0  0  0  0  0  0  0  0  0  0  0
   49.0902   -0.1661  -17.8883 O   0  0  0  0  0  0  0  0  0  0  0  0
   43.5924   -0.8578  -18.0626 H   0  0  0  0  0  0  0  0  0  0  0  0
   51.1533    1.1802  -12.3210 C   0  0  0  0  0  0  0  0  0  0  0  0
   56.5580    0.5186   -4.3417 C   0  0  0  0  0  0  0  0  0  0  0  0
   54.8894    0.5635   -9.0552 N   0  0  0  0  0  0  0  0  0  0  0  0
   52.5633    1.6234   -1.5444 O   0  0  0  0  0  0  0  0  0  0  0  0
   55.6759    0.3460   -9.6060 H   0  0  0  0  0  0  0  0  0  0  0  0
   60.2926   -0.0979   -1.0782 C   0  0  0  0  0  0  0  0  0  0  0  0
   65.5264   -2.2995    6.7372 C   0  0  0  0  0  0  0  0  0  0  0  0
   62.0888   -2.1594    3.1085 N   0  0  0  0  0  0  0  0  0  0  0  0
   62.3552   -6.0117    7.8152 O   0  0  0  0  0  0  0  0  0  0  0  0
   61.4644   -2.8904    3.3208 H   0  0  0  0  0  0  0  0  0  0  0  0
   67.3226   -4.3610   10.9238 C   0  0  0  0  0  0  0  0  0  0  0  0
   62.3617   -4.8975   11.2426 C   0  0  0  0  0  0  0  0  0  0  0  0
   63.4688   -9.0136   18.4617 C   0  0  0  0  0  0  0  0  0  0  0  0
   66.5510   -6.7002   15.2754 N   0  0  0  0  0  0  0  0  0  0  0  0
   59.0044   -8.9637   16.2100 O   0  0  0  0  0  0  0  0  0  0  0  0
   67.4300   -6.7100   15.7188 H   0  0  0  0  0  0  0  0  0  0  0  0
   62.6982  -11.3515   22.8112 C   0  0  0  0  0  0  0  0  0  0  0  0
   62.5772  -17.8285   29.9773 C   0  0  0  0  0  0  0  0  0  0  0  0
   62.6821  -15.5498   25.5275 N   0  0  0  0  0  0  0  0  0  0  0  0
   62.7486  -21.5371   26.6283 O   0  0  0  0  0  0  0  0  0  0  0  0
   62.7158  -16.2801   24.8681 H   0  0  0  0  0  0  0  0  0  0  0  0
   62.5610  -22.0268   32.6935 C   0  0  0  0  0  0  0  0  0  0  0  0
   65.3244  -24.8935   41.4950 C   0  0  0  0  0  0  0  0  0  0  0  0
   62.9819  -24.3268   37.1136 N   0  0  0  0  0  0  0  0  0  0  0  0
   69.0369  -21.5447   41.4201 O   0  0  0  0  0  0  0  0  0  0  0  0
   62.2510  -24.9861   37.1284 H   0  0  0  0  0  0  0  0  0  0  0  0
   64.8609  -29.4871   50.2661 N   0  0  0  0  0  0  0  0  0  0  0  0
   65.7446  -27.1927   45.9126 C   0  0  0  0  0  0  0  0  0  0  0  0
   63.9016  -29.6640   50.5638 H   0  0  0  0  0  0  0  0  0  0  0  0
   65.6400  -29.7784   50.8564 H   0  0  0  0  0  0  0  0  0  0  0  0
   64.6806  -29.9552   51.1542 H   0  0  0  0  0  0  0  0  0  0  0  0
   70.6649  -27.5164   46.7407 C   0  0  0  0  0  0  0  0  0  0  0  0
   75.5851  -27.8402   47.5688 C   0  0  0  0  0  0  0  0  0  0  0  0
   69.8599  -31.1153   50.1168 O   0  0  0  0  0  0  0  0  0  0  0  0
   68.9552  -31.4100   50.3052 H   0  0  0  0  0  0  0  0  0  0  0  0
   63.4055  -18.3592   35.9853 C   0  0  0  0  0  0  0  0  0  0  0  0
   64.5139  -16.8821   40.6324 C   0  0  0  0  0  0  0  0  0  0  0  0
   66.7931  -20.0309   43.7783 C   0  0  0  0  0  0  0  0  0  0  0  0
   71.5817  -21.2689   43.0414 N   0  0  0  0  0  0  0  0  0  0  0  0
   64.2850  -21.9408   47.6589 O   0  0  0  0  0  0  0  0  0  0  0  0
   72.0307  -21.8888   43.6605 H   0  0  0  0  0  0  0  0  0  0  0  0
   72.0754  -20.8927   42.2772 H   0  0  0  0  0  0  0  0  0  0  0  0
   61.2403   -7.7608   25.9705 C   0  0  0  0  0  0  0  0  0  0  0  0
   62.3275   -3.8118   28.8370 C   0  0  0  0  0  0  0  0  0  0  0  0
   66.9116   -1.8204   28.7181 C   0  0  0  0  0  0  0  0  0  0  0  0
   69.9340   -2.7286   24.8409 N   0  0  0  0  0  0  0  0  0  0  0  0
   68.4740    1.0807   32.4785 O   0  0  0  0  0  0  0  0  0  0  0  0
   70.8367   -2.3362   24.8179 H   0  0  0  0  0  0  0  0  0  0  0  0
   69.6266   -3.2999   24.1004 H   0  0  0  0  0  0  0  0  0  0  0  0
   64.9710    1.6250   -0.6896 C   0  0  0  0  0  0  0  0  0  0  0  0
   66.6289    3.3877    3.6866 O   0  0  0  0  0  0  0  0  0  0  0  0
   67.5363    3.7220    3.7624 H   0  0  0  0  0  0  0  0  0  0  0  0
   49.2233   -1.6285   -8.6623 C   0  0  0  0  0  0  0  0  0  0  0  0
   45.2940   -3.8843   -6.5492 C   0  0  0  0  0  0  0  0  0  0  0  0
   49.4370   -6.4988   -7.5485 N   0  0  0  0  0  0  0  0  0  0  0  0
   43.1476   -7.9977   -4.6859 C   0  0  0  0  0  0  0  0  0  0  0  0
   47.2905  -10.6122   -5.6852 N   0  0  0  0  0  0  0  0  0  0  0  0
   51.9507  -10.8190   -7.4821 C   0  0  0  0  0  0  0  0  0  0  0  0
   50.0564   -5.8498   -7.9538 H   0  0  0  0  0  0  0  0  0  0  0  0
   47.0936  -11.5278   -5.3818 H   0  0  0  0  0  0  0  0  0  0  0  0
 97 98  1  0  0  0
 97 99  1  0  0  0
 97100  1  0  0  0
 97101  1  0  0  0
 98102  1  0  0  0
 98 93  1  0  0  0
102103  1  0  0  0
102104  1  0  0  0
104105  1  0  0  0
 93 94  1  0  0  0
 93 95  2  0  0  0
 94 92  1  0  0  0
 94 96  1  0  0  0
 92 88  1  0  0  0
 92106  1  0  0  0
 88 89  1  0  0  0
 88 90  2  0  0  0
 89 87  1  0  0  0
 89 91  1  0  0  0
 87 83  1  0  0  0
 87113  1  0  0  0
 83 84  1  0  0  0
 83 85  2  0  0  0
 84 81  1  0  0  0
 84 86  1  0  0  0
 81 77  1  0  0  0
 81 82  1  0  0  0
 77 78  1  0  0  0
 77 79  2  0  0  0
 78 76  1  0  0  0
 78 80  1  0  0  0
 76 72  1  0  0  0
 76120  1  0  0  0
 72 73  1  0  0  0
 72 74  2  0  0  0
 73 71  1  0  0  0
 73 75  1  0  0  0
 71 67  1  0  0  0
 71123  1  0  0  0
106107  1  0  0  0
107108  1  0  0  0
108109  1  0  0  0
108110  2  0  0  0
109111  1  0  0  0
109112  1  0  0  0
113114  1  0  0  0
114115  1  0  0  0
115116  1  0  0  0
115117  2  0  0  0
116118  1  0  0  0
116119  1  0  0  0
120121  1  0  0  0
121122  1  0  0  0
 67 68  1  0  0  0
 67 69  2  0  0  0
 68  1  1  0  0  0
 68 70  1  0  0  0
  1 10  1  0  0  0
  1  2  1  0  0  0
 10 11  1  0  0  0
 10 12  2  0  0  0
 11 14  1  0  0  0
 11 13  1  0  0  0
 14 15  1  0  0  0
 14 59  1  0  0  0
 15 16  1  0  0  0
 15 17  2  0  0  0
 16 19  1  0  0  0
 16 18  1  0  0  0
 19 20  1  0  0  0
 19 52  1  0  0  0
123124  1  0  0  0
124125  1  0  0  0
124126  2  0  0  0
125128  1  0  0  0
125129  1  0  0  0
126127  1  0  0  0
127128  2  0  0  0
127130  1  0  0  0
  2  3  2  0  0  0
  3  4  1  0  0  0
  4  5  2  0  0  0
  5  6  1  0  0  0
  5  8  1  0  0  0
  6  7  2  0  0  0
  7  2  1  0  0  0
  8  9  1  0  0  0
 59 60  1  0  0  0
 60 61  1  0  0  0
 61 62  1  0  0  0
 62 63  1  0  0  0
 63 64  1  0  0  0
 63 65  1  0  0  0
 63 66  1  0  0  0
 20 21  1  0  0  0
 20 22  2  0  0  0
 21 24  1  0  0  0
 21 23  1  0  0  0
 24 25  1  0  0  0
 24 44  1  0  0  0
 25 26  1  0  0  0
 25 27  2  0  0  0
 26 29  1  0  0  0
 26 28  1  0  0  0
 29 30  1  0  0  0
 29 41  1  0  0  0
 30 31  1  0  0  0
 30 33  2  0  0  0
 31 32  1  0  0  0
 31 35  1  0  0  0
 32 37  1  0  0  0
 32 34  1  0  0  0
 37 38  2  0  0  0
 37 39  1  0  0  0
 52 53  1  0  0  0
 53 54  1  0  0  0
 54 55  1  0  0  0
 54 56  2  0  0  0
 55 57  1  0  0  0
 55 58  1  0  0  0
 44 45  1  0  0  0
 45 46  1  0  0  0
 45 47  2  0  0  0
 46 49  1  0  0  0
 46 50  1  0  0  0
 47 48  1  0  0  0
 48 49  2  0  0  0
 48 51  1  0  0  0
 41 42  1  0  0  0
 42 43  1  0  0  0
 39 40  1  0  0  0
 34 36  1  0  0  0
 35 36  1  0  0  0
M  CHG 1  48   1
M  CHG 1  63   1
M  CHG 1  97   1
M  CHG 1 127   1
M  END
> <minimizedAffinity>
-8.79495

$$$$



130133  0  0  0  0  0  0  0  0999 V2000
   42.2773   -1.5188   -8.0224 C   0  0  0  0  0  0  0  0  0  0  0  0
   42.5950   -0.3842  -12.8816 C   0  0  0  0  0  0  0  0  0  0  0  0
   46.8582    1.4474  -14.7477 C   0  0  0  0  0  0  0  0  0  0  0  0
   47.1759    2.5821  -19.6068 C   0  0  0  0  0  0  0  0  0  0  0  0
   43.2305    1.8851  -22.5997 C   0  0  0  0  0  0  0  0  0  0  0  0
   38.9699    0.0543  -20.7337 C   0  0  0  0  0  0  0  0  0  0  0  0
   38.6521   -1.0803  -15.8745 C   0  0  0  0  0  0  0  0  0  0  0  0
   43.5483    3.0198  -27.4593 O   0  0  0  0  0  0  0  0  0  0  0  0
   44.3470    3.3630  -27.8090 H   0  0  0  0  0  0  0  0  0  0  0  0
   45.6698   -5.1190   -7.3097 C   0  0  0  0  0  0  0  0  0  0  0  0
   46.7738   -9.9162   -6.4309 N   0  0  0  0  0  0  0  0  0  0  0  0
   50.0939   -2.8107   -7.6298 O   0  0  0  0  0  0  0  0  0  0  0  0
   45.9028  -10.3707   -6.3679 H   0  0  0  0  0  0  0  0  0  0  0  0
   50.1676  -13.5187   -5.7178 C   0  0  0  0  0  0  0  0  0  0  0  0
   51.6113  -17.7127   -3.4092 C   0  0  0  0  0  0  0  0  0  0  0  0
   54.8386  -20.1431   -0.4627 N   0  0  0  0  0  0  0  0  0  0  0  0
   55.0569  -14.3055   -2.1768 O   0  0  0  0  0  0  0  0  0  0  0  0
   55.5170  -19.4723   -0.2200 H   0  0  0  0  0  0  0  0  0  0  0  0
   56.2824  -24.3372    1.8459 C   0  0  0  0  0  0  0  0  0  0  0  0
   56.9721  -26.9436    6.0542 C   0  0  0  0  0  0  0  0  0  0  0  0
   58.7453  -30.9866    8.4023 N   0  0  0  0  0  0  0  0  0  0  0  0
   54.8799  -24.1715    9.6515 O   0  0  0  0  0  0  0  0  0  0  0  0
   59.1572  -31.5324    7.6940 H   0  0  0  0  0  0  0  0  0  0  0  0
   59.4356  -33.5948   12.6123 C   0  0  0  0  0  0  0  0  0  0  0  0
   59.3203  -33.8711   17.6038 C   0  0  0  0  0  0  0  0  0  0  0  0
   60.5109  -31.9745   22.0748 N   0  0  0  0  0  0  0  0  0  0  0  0
   61.8434  -29.6733   16.5982 O   0  0  0  0  0  0  0  0  0  0  0  0
   61.0078  -31.1480   21.8768 H   0  0  0  0  0  0  0  0  0  0  0  0
   60.3956  -32.2508   27.0661 C   0  0  0  0  0  0  0  0  0  0  0  0
   57.7981  -32.5520   31.3254 C   0  0  0  0  0  0  0  0  0  0  0  0
   53.8807  -31.1814   34.1145 N   0  0  0  0  0  0  0  0  0  0  0  0
   51.2815  -31.4823   38.3757 C   0  0  0  0  0  0  0  0  0  0  0  0
   60.3449  -35.7813   34.1693 O   0  0  0  0  0  0  0  0  0  0  0  0
   47.3887  -28.4087   37.7384 C   0  0  0  0  0  0  0  0  0  0  0  0
   51.3341  -27.9522   31.2708 C   0  0  0  0  0  0  0  0  0  0  0  0
   46.8706  -25.8891   33.4501 C   0  0  0  0  0  0  0  0  0  0  0  0
   47.3641  -30.1117   41.1649 C   0  0  0  0  0  0  0  0  0  0  0  0
   51.0034  -31.1069   44.4458 O   0  0  0  0  0  0  0  0  0  0  0  0
   43.1249  -28.6662   43.3899 O   0  0  0  0  0  0  0  0  0  0  0  0
   42.3733  -28.4530   42.8725 H   0  0  0  0  0  0  0  0  0  0  0  0
   63.8480  -32.3584   30.6804 C   0  0  0  0  0  0  0  0  0  0  0  0
   62.4671  -33.0112   35.4406 S   0  0  0  0  0  0  0  0  0  0  0  0
   61.1518  -33.1596   35.7528 H   0  0  0  0  0  0  0  0  0  0  0  0
   58.2365  -30.4399   16.3022 C   0  0  0  0  0  0  0  0  0  0  0  0
   60.8666  -26.2363   16.9487 C   0  0  0  0  0  0  0  0  0  0  0  0
   62.3687  -29.6370   13.6054 N   0  0  0  0  0  0  0  0  0  0  0  0
   64.7714  -23.3468   15.7639 C   0  0  0  0  0  0  0  0  0  0  0  0
   66.2734  -26.7475   12.4206 N   0  0  0  0  0  0  0  0  0  0  0  0
   65.6221  -31.1384   10.1168 C   0  0  0  0  0  0  0  0  0  0  0  0
   61.7025  -30.3598   13.6605 H   0  0  0  0  0  0  0  0  0  0  0  0
   67.0927  -26.3712   12.0249 H   0  0  0  0  0  0  0  0  0  0  0  0
   56.9907  -25.2290   -3.0234 C   0  0  0  0  0  0  0  0  0  0  0  0
   53.9104  -23.2114   -6.4068 C   0  0  0  0  0  0  0  0  0  0  0  0
   53.0178  -25.5976  -10.7098 C   0  0  0  0  0  0  0  0  0  0  0  0
   54.5696  -23.6193  -15.0324 N   0  0  0  0  0  0  0  0  0  0  0  0
   50.5747  -29.9598  -10.6902 O   0  0  0  0  0  0  0  0  0  0  0  0
   54.3941  -24.0888  -15.8797 H   0  0  0  0  0  0  0  0  0  0  0  0
   55.0507  -22.7603  -15.0360 H   0  0  0  0  0  0  0  0  0  0  0  0
   48.1575  -16.5271   -2.2659 C   0  0  0  0  0  0  0  0  0  0  0  0
   44.2477  -19.4151   -3.4400 C   0  0  0  0  0  0  0  0  0  0  0  0
   40.6100  -17.6261   -6.3681 C   0  0  0  0  0  0  0  0  0  0  0  0
   36.5034  -15.6407   -4.3196 C   0  0  0  0  0  0  0  0  0  0  0  0
   34.5196  -11.4711   -6.2394 N   0  0  0  0  0  0  0  0  0  0  0  0
   33.6819  -11.0657   -5.8219 H   0  0  0  0  0  0  0  0  0  0  0  0
   34.9527  -11.0259   -7.0485 H   0  0  0  0  0  0  0  0  0  0  0  0
   34.1150  -10.6206   -6.6310 H   0  0  0  0  0  0  0  0  0  0  0  0
   34.7608    4.4577   -6.9735 C   0  0  0  0  0  0  0  0  0  0  0  0
   38.7184    1.4959   -6.2197 N   0  0  0  0  0  0  0  0  0  0  0  0
   35.5312    4.5598   -2.0344 O   0  0  0  0  0  0  0  0  0  0  0  0
   38.8701    1.5160   -5.2471 H   0  0  0  0  0  0  0  0  0  0  0  0
   31.2019    7.4725   -5.1708 C   0  0  0  0  0  0  0  0  0  0  0  0
   26.8309    8.5499    3.3762 C   0  0  0  0  0  0  0  0  0  0  0  0
   28.2203    8.8901   -1.4151 N   0  0  0  0  0  0  0  0  0  0  0  0
   29.9070    5.1536    5.3776 O   0  0  0  0  0  0  0  0  0  0  0  0
   27.6146    9.5588   -1.8092 H   0  0  0  0  0  0  0  0  0  0  0  0
   23.8505    9.9673    7.1295 C   0  0  0  0  0  0  0  0  0  0  0  0
   23.6080    8.3808   16.6554 C   0  0  0  0  0  0  0  0  0  0  0  0
   22.5873    9.7784   11.9640 N   0  0  0  0  0  0  0  0  0  0  0  0
   19.1955   10.7158   16.9319 O   0  0  0  0  0  0  0  0  0  0  0  0
   21.7184   10.2381   12.0185 H   0  0  0  0  0  0  0  0  0  0  0  0
   22.3447    8.1919   21.4900 C   0  0  0  0  0  0  0  0  0  0  0  0
   26.4498    5.3623   21.1138 C   0  0  0  0  0  0  0  0  0  0  0  0
   24.7772    2.9360   29.2214 C   0  0  0  0  0  0  0  0  0  0  0  0
   23.2062    6.5384   26.1297 N   0  0  0  0  0  0  0  0  0  0  0  0
   26.1479   -0.8294   26.2304 O   0  0  0  0  0  0  0  0  0  0  0  0
   22.9364    7.2798   26.7186 H   0  0  0  0  0  0  0  0  0  0  0  0
   25.6381    1.2839   33.8591 C   0  0  0  0  0  0  0  0  0  0  0  0
   29.6696    0.9165   42.6301 C   0  0  0  0  0  0  0  0  0  0  0  0
   28.7488    0.6498   37.7224 N   0  0  0  0  0  0  0  0  0  0  0  0
   33.9005   -0.8238   40.6125 O   0  0  0  0  0  0  0  0  0  0  0  0
   29.5819    0.3071   37.3252 H   0  0  0  0  0  0  0  0  0  0  0  0
   32.7803    0.2824   46.4934 C   0  0  0  0  0  0  0  0  0  0  0  0
   42.0610    2.3406   48.2119 C   0  0  0  0  0  0  0  0  0  0  0  0
   37.3429    0.7085   48.4949 N   0  0  0  0  0  0  0  0  0  0  0  0
   42.3615    4.6708   43.7980 O   0  0  0  0  0  0  0  0  0  0  0  0
   37.2837    0.2497   49.3640 H   0  0  0  0  0  0  0  0  0  0  0  0
   50.6791    4.2935   52.7021 N   0  0  0  0  0  0  0  0  0  0  0  0
   46.6209    2.7661   50.2130 C   0  0  0  0  0  0  0  0  0  0  0  0
   50.6551    5.1656   53.2306 H   0  0  0  0  0  0  0  0  0  0  0  0
   51.5311    3.7331   52.6815 H   0  0  0  0  0  0  0  0  0  0  0  0
   51.5070    4.6051   53.2099 H   0  0  0  0  0  0  0  0  0  0  0  0
   49.1001   -1.2883   48.6589 C   0  0  0  0  0  0  0  0  0  0  0  0
   51.5793   -5.3426   47.1047 C   0  0  0  0  0  0  0  0  0  0  0  0
   47.5327   -0.4550   43.9848 O   0  0  0  0  0  0  0  0  0  0  0  0
   46.9642    0.3069   43.7925 H   0  0  0  0  0  0  0  0  0  0  0  0
   35.5851    2.3306   42.8964 C   0  0  0  0  0  0  0  0  0  0  0  0
   40.0571    3.7730   41.1857 C   0  0  0  0  0  0  0  0  0  0  0  0
   43.1869    0.4031   39.2224 C   0  0  0  0  0  0  0  0  0  0  0  0
   47.8397   -0.0216   41.0047 N   0  0  0  0  0  0  0  0  0  0  0  0
   41.6645   -2.5405   35.4787 O   0  0  0  0  0  0  0  0  0  0  0  0
   48.4562   -0.6849   40.6184 H   0  0  0  0  0  0  0  0  0  0  0  0
   48.1393    0.5581   41.7419 H   0  0  0  0  0  0  0  0  0  0  0  0
   21.2935   -0.6842   35.3596 C   0  0  0  0  0  0  0  0  0  0  0  0
   16.8683   -0.1843   37.6312 C   0  0  0  0  0  0  0  0  0  0  0  0
   14.7495   -4.1174   39.8751 C   0  0  0  0  0  0  0  0  0  0  0  0
   17.4883   -7.1000   42.8071 N   0  0  0  0  0  0  0  0  0  0  0  0
    9.8895   -5.0683   39.1866 O   0  0  0  0  0  0  0  0  0  0  0  0
   17.0706   -7.8744   43.2487 H   0  0  0  0  0  0  0  0  0  0  0  0
   18.4452   -6.9129   42.9427 H   0  0  0  0  0  0  0  0  0  0  0  0
   19.8764   12.9736    7.5485 C   0  0  0  0  0  0  0  0  0  0  0  0
   16.2469   11.8771   10.8090 O   0  0  0  0  0  0  0  0  0  0  0  0
   15.4759   12.4600   10.8907 H   0  0  0  0  0  0  0  0  0  0  0  0
   32.3173    4.3869   -1.3978 C   0  0  0  0  0  0  0  0  0  0  0  0
   35.3540    3.0331    2.3356 C   0  0  0  0  0  0  0  0  0  0  0  0
   31.6459    6.2782    3.1824 N   0  0  0  0  0  0  0  0  0  0  0  0
   36.7208    3.3423    7.1351 C   0  0  0  0  0  0  0  0  0  0  0  0
   33.0127    6.5875    7.9819 N   0  0  0  0  0  0  0  0  0  0  0  0
   29.1188    9.2425    6.3152 C   0  0  0  0  0  0  0  0  0  0  0  0
   31.1969    6.3848    2.3128 H   0  0  0  0  0  0  0  0  0  0  0  0
   33.0836    6.8117    8.9379 H   0  0  0  0  0  0  0  0  0  0  0  0
 97 98  1  0  0  0
 97 99  1  0  0  0
 97100  1  0  0  0
 97101  1  0  0  0
 98102  1  0  0  0
 98 93  1  0  0  0
102103  1  0  0  0
102104  1  0  0  0
104105  1  0  0  0
 93 94  1  0  0  0
 93 95  2  0  0  0
 94 92  1  0  0  0
 94 96  1  0  0  0
 92 88  1  0  0  0
 92106  1  0  0  0
 88 89  1  0  0  0
 88 90  2  0  0  0
 89 87  1  0  0  0
 89 91  1  0  0  0
 87 83  1  0  0  0
 87113  1  0  0  0
 83 84  1  0  0  0
 83 85  2  0  0  0
 84 81  1  0  0  0
 84 86  1  0  0  0
 81 77  1  0  0  0
 81 82  1  0  0  0
 77 78  1  0  0  0
 77 79  2  0  0  0
 78 76  1  0  0  0
 78 80  1  0  0  0
 76 72  1  0  0  0
 76120  1  0  0  0
 72 73  1  0  0  0
 72 74  2  0  0  0
 73 71  1  0  0  0
 73 75  1  0  0  0
 71 67  1  0  0  0
 71123  1  0  0  0
106107  1  0  0  0
107108  1  0  0  0
108109  1  0  0  0
108110  2  0  0  0
109111  1  0  0  0
109112  1  0  0  0
113114  1  0  0  0
114115  1  0  0  0
115116  1  0  0  0
115117  2  0  0  0
116118  1  0  0  0
116119  1  0  0  0
120121  1  0  0  0
121122  1  0  0  0
 67 68  1  0  0  0
 67 69  2  0  0  0
 68  1  1  0  0  0
 68 70  1  0  0  0
  1 10  1  0  0  0
  1  2  1  0  0  0
 10 11  1  0  0  0
 10 12  2  0  0  0
 11 14  1  0  0  0
 11 13  1  0  0  0
 14 15  1  0  0  0
 14 59  1  0  0  0
 15 16  1  0  0  0
 15 17  2  0  0  0
 16 19  1  0  0  0
 16 18  1  0  0  0
 19 20  1  0  0  0
 19 52  1  0  0  0
123124  1  0  0  0
124125  1  0  0  0
124126  2  0  0  0
125128  1  0  0  0
125129  1  0  0  0
126127  1  0  0  0
127128  2  0  0  0
127130  1  0  0  0
  2  3  2  0  0  0
  3  4  1  0  0  0
  4  5  2  0  0  0
  5  6  1  0  0  0
  5  8  1  0  0  0
  6  7  2  0  0  0
  7  2  1  0  0  0
  8  9  1  0  0  0
 59 60  1  0  0  0
 60 61  1  0  0  0
 61 62  1  0  0  0
 62 63  1  0  0  0
 63 64  1  0  0  0
 63 65  1  0  0  0
 63 66  1  0  0  0
 20 21  1  0  0  0
 20 22  2  0  0  0
 21 24  1  0  0  0
 21 23  1  0  0  0
 24 25  1  0  0  0
 24 44  1  0  0  0
 25 26  1  0  0  0
 25 27  2  0  0  0
 26 29  1  0  0  0
 26 28  1  0  0  0
 29 30  1  0  0  0
 29 41  1  0  0  0
 30 31  1  0  0  0
 30 33  2  0  0  0
 31 32  1  0  0  0
 31 35  1  0  0  0
 32 37  1  0  0  0
 32 34  1  0  0  0
 37 38  2  0  0  0
 37 39  1  0  0  0
 52 53  1  0  0  0
 53 54  1  0  0  0
 54 55  1  0  0  0
 54 56  2  0  0  0
 55 57  1  0  0  0
 55 58  1  0  0  0
 44 45  1  0  0  0
 45 46  1  0  0  0
 45 47  2  0  0  0
 46 49  1  0  0  0
 46 50  1  0  0  0
 47 48  1  0  0  0
 48 49  2  0  0  0
 48 51  1  0  0  0
 41 42  1  0  0  0
 42 43  1  0  0  0
 39 40  1  0  0  0
 34 36  1  0  0  0
 35 36  1  0  0  0
M  CHG 1  48   1
M  CHG 1  63   1
M  CHG 1  97   1
M  CHG 1 127   1
M  END
> <minimizedAffinity>
-8.70857

$$$$



130133  0  0  0  0  0  0  0  0999 V2000
   42.2289   -1.5507   -8.0663 C   0  0  0  0  0  0  0  0  0  0  0  0
   42.4362   -0.5219  -12.9549 C   0  0  0  0  0  0  0  0  0  0  0  0
   46.0287    2.4707  -14.7298 C   0  0  0  0  0  0  0  0  0  0  0  0
   46.2360    3.4995  -19.6184 C   0  0  0  0  0  0  0  0  0  0  0  0
   42.8510    1.5356  -22.7319 C   0  0  0  0  0  0  0  0  0  0  0  0
   39.2606   -1.4554  -20.9570 C   0  0  0  0  0  0  0  0  0  0  0  0
   39.0533   -2.4842  -16.0684 C   0  0  0  0  0  0  0  0  0  0  0  0
   43.0583    2.5645  -27.6210 O   0  0  0  0  0  0  0  0  0  0  0  0
   43.7314    3.1252  -27.9536 H   0  0  0  0  0  0  0  0  0  0  0  0
   45.6583   -5.1145   -7.3473 C   0  0  0  0  0  0  0  0  0  0  0  0
   46.8127   -9.9053   -6.4993 N   0  0  0  0  0  0  0  0  0  0  0  0
   50.0562   -2.7481   -7.5957 O   0  0  0  0  0  0  0  0  0  0  0  0
   45.9468  -10.3712   -6.4504 H   0  0  0  0  0  0  0  0  0  0  0  0
   50.2434  -13.4715   -5.7799 C   0  0  0  0  0  0  0  0  0  0  0  0
   51.8741  -17.4649   -3.2507 C   0  0  0  0  0  0  0  0  0  0  0  0
   55.2805  -19.6245   -0.2950 N   0  0  0  0  0  0  0  0  0  0  0  0
   55.3046  -13.9220   -2.4268 O   0  0  0  0  0  0  0  0  0  0  0  0
   55.9560  -18.9269   -0.1327 H   0  0  0  0  0  0  0  0  0  0  0  0
   56.9113  -23.6180    2.2343 C   0  0  0  0  0  0  0  0  0  0  0  0
   57.4532  -26.0846    6.5471 C   0  0  0  0  0  0  0  0  0  0  0  0
   59.4250  -29.8698    9.1526 N   0  0  0  0  0  0  0  0  0  0  0  0
   54.6918  -23.5405    9.8494 O   0  0  0  0  0  0  0  0  0  0  0  0
   59.9686  -30.3707    8.5025 H   0  0  0  0  0  0  0  0  0  0  0  0
   59.9675  -32.3381   13.4673 C   0  0  0  0  0  0  0  0  0  0  0  0
   59.3377  -32.5897   18.4215 C   0  0  0  0  0  0  0  0  0  0  0  0
   60.6462  -31.1611   23.0315 N   0  0  0  0  0  0  0  0  0  0  0  0
   63.0823  -29.3439   17.7564 O   0  0  0  0  0  0  0  0  0  0  0  0
   61.3835  -30.5220   22.9005 H   0  0  0  0  0  0  0  0  0  0  0  0
   60.0164  -31.4127   27.9856 C   0  0  0  0  0  0  0  0  0  0  0  0
   57.1104  -30.8530   32.0132 C   0  0  0  0  0  0  0  0  0  0  0  0
   53.9464  -28.0832   34.7190 N   0  0  0  0  0  0  0  0  0  0  0  0
   51.0388  -27.5227   38.7483 C   0  0  0  0  0  0  0  0  0  0  0  0
   57.6058  -35.1213   34.5703 O   0  0  0  0  0  0  0  0  0  0  0  0
   49.0378  -22.9640   38.2778 C   0  0  0  0  0  0  0  0  0  0  0  0
   53.4511  -23.8152   32.1620 C   0  0  0  0  0  0  0  0  0  0  0  0
   50.1808  -20.1301   34.3195 C   0  0  0  0  0  0  0  0  0  0  0  0
   47.8748  -24.7529   41.4542 C   0  0  0  0  0  0  0  0  0  0  0  0
   52.4332  -23.2545   42.8595 O   0  0  0  0  0  0  0  0  0  0  0  0
   44.2322  -22.3058   43.8528 O   0  0  0  0  0  0  0  0  0  0  0  0
   43.3349  -22.5042   43.6695 H   0  0  0  0  0  0  0  0  0  0  0  0
   62.9116  -32.6904   31.8558 C   0  0  0  0  0  0  0  0  0  0  0  0
   60.8893  -33.3645   36.3778 S   0  0  0  0  0  0  0  0  0  0  0  0
   59.5510  -33.2003   36.5555 H   0  0  0  0  0  0  0  0  0  0  0  0
   57.9834  -29.3332   16.9373 C   0  0  0  0  0  0  0  0  0  0  0  0
   57.2807  -31.0162   21.5934 C   0  0  0  0  0  0  0  0  0  0  0  0
   55.7153  -26.4401   20.3253 N   0  0  0  0  0  0  0  0  0  0  0  0
   55.5649  -30.3162   26.2374 C   0  0  0  0  0  0  0  0  0  0  0  0
   53.9996  -25.7401   24.9692 N   0  0  0  0  0  0  0  0  0  0  0  0
   53.5014  -22.1259   21.5485 C   0  0  0  0  0  0  0  0  0  0  0  0
   55.9619  -26.3402   19.3774 H   0  0  0  0  0  0  0  0  0  0  0  0
   53.5935  -25.3738   25.7879 H   0  0  0  0  0  0  0  0  0  0  0  0
   58.1695  -24.4964   -2.5252 C   0  0  0  0  0  0  0  0  0  0  0  0
   56.9845  -21.1802   -6.0755 C   0  0  0  0  0  0  0  0  0  0  0  0
   52.2078  -20.5565   -7.4177 C   0  0  0  0  0  0  0  0  0  0  0  0
   50.8089  -21.4064  -12.1429 N   0  0  0  0  0  0  0  0  0  0  0  0
   48.8319  -19.0837   -4.0365 O   0  0  0  0  0  0  0  0  0  0  0  0
   49.8686  -21.2837  -12.4075 H   0  0  0  0  0  0  0  0  0  0  0  0
   51.4738  -21.6964  -12.8085 H   0  0  0  0  0  0  0  0  0  0  0  0
   48.5423  -16.1438   -1.9106 C   0  0  0  0  0  0  0  0  0  0  0  0
   44.9847  -19.5851   -2.6223 C   0  0  0  0  0  0  0  0  0  0  0  0
   40.8986  -18.4441   -5.2697 C   0  0  0  0  0  0  0  0  0  0  0  0
   40.4293  -13.9016   -7.3064 C   0  0  0  0  0  0  0  0  0  0  0  0
   37.4824  -10.4874   -5.1464 N   0  0  0  0  0  0  0  0  0  0  0  0
   37.3864   -9.5608   -5.5615 H   0  0  0  0  0  0  0  0  0  0  0  0
   36.9773  -10.7178   -4.2907 H   0  0  0  0  0  0  0  0  0  0  0  0
   36.8813   -9.7911   -4.7058 H   0  0  0  0  0  0  0  0  0  0  0  0
   34.7105    4.4189   -6.9912 C   0  0  0  0  0  0  0  0  0  0  0  0
   38.6902    1.4825   -6.2546 N   0  0  0  0  0  0  0  0  0  0  0  0
   35.5627    4.6056   -2.0680 O   0  0  0  0  0  0  0  0  0  0  0  0
   38.8580    1.5192   -5.2852 H   0  0  0  0  0  0  0  0  0  0  0  0
   31.1718    7.4520   -5.1795 C   0  0  0  0  0  0  0  0  0  0  0  0
   26.8493    8.5696    3.3869 C   0  0  0  0  0  0  0  0  0  0  0  0
   28.2203    8.8970   -1.4106 N   0  0  0  0  0  0  0  0  0  0  0  0
   29.9030    5.1451    5.3745 O   0  0  0  0  0  0  0  0  0  0  0  0
   27.6191    9.5713   -1.8019 H   0  0  0  0  0  0  0  0  0  0  0  0
   23.8990   10.0143    7.1535 C   0  0  0  0  0  0  0  0  0  0  0  0
   23.6700    8.4821   16.6886 C   0  0  0  0  0  0  0  0  0  0  0  0
   22.6026    9.7722   11.9769 N   0  0  0  0  0  0  0  0  0  0  0  0
   19.1034   10.5066   16.9042 O   0  0  0  0  0  0  0  0  0  0  0  0
   21.7035   10.1708   12.0193 H   0  0  0  0  0  0  0  0  0  0  0  0
   22.3736    8.2400   21.5120 C   0  0  0  0  0  0  0  0  0  0  0  0
   26.4377    5.3543   21.1181 C   0  0  0  0  0  0  0  0  0  0  0  0
   24.8415    2.9012   29.1752 C   0  0  0  0  0  0  0  0  0  0  0  0
   23.1808    6.5042   26.1314 N   0  0  0  0  0  0  0  0  0  0  0  0
   26.4905   -0.7064   26.1308 O   0  0  0  0  0  0  0  0  0  0  0  0
   22.8561    7.2145   26.7308 H   0  0  0  0  0  0  0  0  0  0  0  0
   25.6481    1.1669   33.7925 C   0  0  0  0  0  0  0  0  0  0  0  0
   31.5384   -2.7716   40.3585 C   0  0  0  0  0  0  0  0  0  0  0  0
   28.0286   -1.9522   36.8923 N   0  0  0  0  0  0  0  0  0  0  0  0
   29.3567   -7.2144   39.6508 O   0  0  0  0  0  0  0  0  0  0  0  0
   27.5990   -2.8270   36.7530 H   0  0  0  0  0  0  0  0  0  0  0  0
   33.9189   -5.8907   43.4582 C   0  0  0  0  0  0  0  0  0  0  0  0
   35.7416  -15.3765   43.5879 C   0  0  0  0  0  0  0  0  0  0  0  0
   35.6308  -10.4660   44.5257 N   0  0  0  0  0  0  0  0  0  0  0  0
   32.6479  -16.0239   39.7132 O   0  0  0  0  0  0  0  0  0  0  0  0
   36.2399  -10.3386   45.2886 H   0  0  0  0  0  0  0  0  0  0  0  0
   38.0584  -24.5906   46.4129 N   0  0  0  0  0  0  0  0  0  0  0  0
   37.4530  -19.9492   44.6554 C   0  0  0  0  0  0  0  0  0  0  0  0
   37.3510  -25.0016   47.0219 H   0  0  0  0  0  0  0  0  0  0  0  0
   38.8894  -25.1264   46.1625 H   0  0  0  0  0  0  0  0  0  0  0  0
   38.1820  -25.5374   46.7715 H   0  0  0  0  0  0  0  0  0  0  0  0
   41.8072  -20.3022   42.2231 C   0  0  0  0  0  0  0  0  0  0  0  0
   46.1614  -20.6553   39.7908 C   0  0  0  0  0  0  0  0  0  0  0  0
   42.6354  -24.7501   44.3513 O   0  0  0  0  0  0  0  0  0  0  0  0
   41.9842  -25.1222   44.9663 H   0  0  0  0  0  0  0  0  0  0  0  0
   32.6272   -8.7041   39.5319 C   0  0  0  0  0  0  0  0  0  0  0  0
   31.8564  -13.2068   37.4977 C   0  0  0  0  0  0  0  0  0  0  0  0
   35.4905  -16.6409   37.5799 C   0  0  0  0  0  0  0  0  0  0  0  0
   35.7605  -19.9029   41.3604 N   0  0  0  0  0  0  0  0  0  0  0  0
   38.8528  -16.8128   33.8835 O   0  0  0  0  0  0  0  0  0  0  0  0
   36.4759  -20.5792   41.3769 H   0  0  0  0  0  0  0  0  0  0  0  0
   35.0984  -19.8689   42.0882 H   0  0  0  0  0  0  0  0  0  0  0  0
   22.6089    3.8396   36.7286 C   0  0  0  0  0  0  0  0  0  0  0  0
   18.0016    5.3087   37.9961 C   0  0  0  0  0  0  0  0  0  0  0  0
   16.3159    9.7864   36.5463 C   0  0  0  0  0  0  0  0  0  0  0  0
   13.0854   10.1333   32.7468 N   0  0  0  0  0  0  0  0  0  0  0  0
   17.8615   13.9194   38.8974 O   0  0  0  0  0  0  0  0  0  0  0  0
   12.7537   11.0153   32.4616 H   0  0  0  0  0  0  0  0  0  0  0  0
   12.7810    9.3196   32.2837 H   0  0  0  0  0  0  0  0  0  0  0  0
   20.0299   13.1487    7.6140 C   0  0  0  0  0  0  0  0  0  0  0  0
   20.8382   18.0559    8.1359 O   0  0  0  0  0  0  0  0  0  0  0  0
   20.0880   18.6642    8.2252 H   0  0  0  0  0  0  0  0  0  0  0  0
   32.3062    4.3838   -1.3981 C   0  0  0  0  0  0  0  0  0  0  0  0
   35.3209    3.0921    2.3749 C   0  0  0  0  0  0  0  0  0  0  0  0
   36.4607    7.0189   -0.5024 N   0  0  0  0  0  0  0  0  0  0  0  0
   39.4596    3.8665    5.0713 C   0  0  0  0  0  0  0  0  0  0  0  0
   40.5994    7.7933    2.1939 N   0  0  0  0  0  0  0  0  0  0  0  0
   39.5168   10.8058   -1.6455 C   0  0  0  0  0  0  0  0  0  0  0  0
   35.7317    7.0718   -1.1619 H   0  0  0  0  0  0  0  0  0  0  0  0
   41.4446    8.1407    2.5601 H   0  0  0  0  0  0  0  0  0  0  0  0
 97 98  1  0  0  0
 97 99  1  0  0  0
 97100  1  0  0  0
 97101  1  0  0  0
 98102  1  0  0  0
 98 93  1  0  0  0
102103  1  0  0  0
102104  1  0  0  0
104105  1  0  0  0
 93 94  1  0  0  0
 93 95  2  0  0  0
 94 92  1  0  0  0
 94 96  1  0  0  0
 92 88  1  0  0  0
 92106  1  0  0  0
 88 89  1  0  0  0
 88 90  2  0  0  0
 89 87  1  0  0  0
 89 91  1  0  0  0
 87 83  1  0  0  0
 87113  1  0  0  0
 83 84  1  0  0  0
 83 85  2  0  0  0
 84 81  1  0  0  0
 84 86  1  0  0  0
 81 77  1  0  0  0
 81 82  1  0  0  0
 77 78  1  0  0  0
 77 79  2  0  0  0
 78 76  1  0  0  0
 78 80  1  0  0  0
 76 72  1  0  0  0
 76120  1  0  0  0
 72 73  1  0  0  0
 72 74  2  0  0  0
 73 71  1  0  0  0
 73 75  1  0  0  0
 71 67  1  0  0  0
 71123  1  0  0  0
106107  1  0  0  0
107108  1  0  0  0
108109  1  0  0  0
108110  2  0  0  0
109111  1  0  0  0
109112  1  0  0  0
113114  1  0  0  0
114115  1  0  0  0
115116  1  0  0  0
115117  2  0  0  0
116118  1  0  0  0
116119  1  0  0  0
120121  1  0  0  0
121122  1  0  0  0
 67 68  1  0  0  0
 67 69  2  0  0  0
 68  1  1  0  0  0
 68 70  1  0  0  0
  1 10  1  0  0  0
  1  2  1  0  0  0
 10 11  1  0  0  0
 10 12  2  0  0  0
 11 14  1  0  0  0
 11 13  1  0  0  0
 14 15  1  0  0  0
 14 59  1  0  0  0
 15 16  1  0  0  0
 15 17  2  0  0  0
 16 19  1  0  0  0
 16 18  1  0  0  0
 19 20  1  0  0  0
 19 52  1  0  0  0
123124  1  0  0  0
124125  1  0  0  0
124126  2  0  0  0
125128  1  0  0  0
125129  1  0  0  0
126127  1  0  0  0
127128  2  0  0  0
127130  1  0  0  0
  2  3  2  0  0  0
  3  4  1  0  0  0
  4  5  2  0  0  0
  5  6  1  0  0  0
  5  8  1  0  0  0
  6  7  2  0  0  0
  7  2  1  0  0  0
  8  9  1  0  0  0
 59 60  1  0  0  0
 60 61  1  0  0  0
 61 62  1  0  0  0
 62 63  1  0  0  0
 63 64  1  0  0  0
 63 65  1  0  0  0
 63 66  1  0  0  0
 20 21  1  0  0  0
 20 22  2  0  0  0
 21 24  1  0  0  0
 21 23  1  0  0  0
 24 25  1  0  0  0
 24 44  1  0  0  0
 25 26  1  0  0  0
 25 27  2  0  0  0
 26 29  1  0  0  0
 26 28  1  0  0  0
 29 30  1  0  0  0
 29 41  1  0  0  0
 30 31  1  0  0  0
 30 33  2  0  0  0
 31 32  1  0  0  0
 31 35  1  0  0  0
 32 37  1  0  0  0
 32 34  1  0  0  0
 37 38  2  0  0  0
 37 39  1  0  0  0
 52 53  1  0  0  0
 53 54  1  0  0  0
 54 55  1  0  0  0
 54 56  2  0  0  0
 55 57  1  0  0  0
 55 58  1  0  0  0
 44 45  1  0  0  0
 45 46  1  0  0  0
 45 47  2  0  0  0
 46 49  1  0  0  0
 46 50  1  0  0  0
 47 48  1  0  0  0
 48 49  2  0  0  0
 48 51  1  0  0  0
 41 42  1  0  0  0
 42 43  1  0  0  0
 39 40  1  0  0  0
 34 36  1  0  0  0
 35 36  1  0  0  0
M  CHG 1  48   1
M  CHG 1  63   1
M  CHG 1  97   1
M  CHG 1 127   1
M  END
> <minimizedAffinity>
-8.68683

$$$$



130133  0  0  0  0  0  0  0  0999 V2000
   14.5025  -19.5819   -3.4999 C   0  0  0  0  0  0  0  0  0  0  0  0
   11.2318  -22.7230   -5.6062 C   0  0  0  0  0  0  0  0  0  0  0  0
   12.7651  -25.9567   -9.0995 C   0  0  0  0  0  0  0  0  0  0  0  0
    9.4945  -29.0978  -11.2058 C   0  0  0  0  0  0  0  0  0  0  0  0
    4.6906  -29.0050   -9.8186 C   0  0  0  0  0  0  0  0  0  0  0  0
    3.1590  -25.7724   -6.3270 C   0  0  0  0  0  0  0  0  0  0  0  0
    6.4297  -22.6314   -4.2207 C   0  0  0  0  0  0  0  0  0  0  0  0
    1.4197  -32.1463  -11.9251 O   0  0  0  0  0  0  0  0  0  0  0  0
    1.7069  -32.7522  -12.5796 H   0  0  0  0  0  0  0  0  0  0  0  0
   16.1401  -16.7125   -7.2500 C   0  0  0  0  0  0  0  0  0  0  0  0
   15.5988  -14.9218  -11.8874 N   0  0  0  0  0  0  0  0  0  0  0  0
   20.3503  -14.6259   -5.5404 O   0  0  0  0  0  0  0  0  0  0  0  0
   14.7699  -15.3326  -12.2240 H   0  0  0  0  0  0  0  0  0  0  0  0
   17.2367  -12.0511  -15.6398 C   0  0  0  0  0  0  0  0  0  0  0  0
   19.9019   -8.1413  -17.2563 C   0  0  0  0  0  0  0  0  0  0  0  0
   21.2006   -3.3280  -16.8693 N   0  0  0  0  0  0  0  0  0  0  0  0
   17.2618   -6.3960  -13.3855 O   0  0  0  0  0  0  0  0  0  0  0  0
   20.6807   -2.9843  -16.1071 H   0  0  0  0  0  0  0  0  0  0  0  0
   23.8658    0.5820  -18.4858 C   0  0  0  0  0  0  0  0  0  0  0  0
   28.2553    2.5884  -19.7839 C   0  0  0  0  0  0  0  0  0  0  0  0
   32.6949    4.4953  -18.4964 N   0  0  0  0  0  0  0  0  0  0  0  0
   28.1632    2.7826  -24.7796 O   0  0  0  0  0  0  0  0  0  0  0  0
   32.7131    4.4571  -17.5128 H   0  0  0  0  0  0  0  0  0  0  0  0
   37.0868    6.5028  -19.7945 C   0  0  0  0  0  0  0  0  0  0  0  0
   42.0238    6.9242  -19.1216 C   0  0  0  0  0  0  0  0  0  0  0  0
   45.9088    8.2056  -16.2460 N   0  0  0  0  0  0  0  0  0  0  0  0
   39.9914    8.5856  -14.8662 O   0  0  0  0  0  0  0  0  0  0  0  0
   45.5086    8.5328  -15.4081 H   0  0  0  0  0  0  0  0  0  0  0  0
   50.8457    8.6271  -15.5730 C   0  0  0  0  0  0  0  0  0  0  0  0
   55.1599    6.7500  -13.8868 C   0  0  0  0  0  0  0  0  0  0  0  0
   57.6501    3.7914  -10.7168 N   0  0  0  0  0  0  0  0  0  0  0  0
   61.9662    1.9131   -9.0292 C   0  0  0  0  0  0  0  0  0  0  0  0
   58.6873    8.8371  -16.7511 O   0  0  0  0  0  0  0  0  0  0  0  0
   60.6738   -1.1467   -5.2910 C   0  0  0  0  0  0  0  0  0  0  0  0
   54.1229    1.7045   -7.8526 C   0  0  0  0  0  0  0  0  0  0  0  0
   55.8568   -1.7017   -4.0683 C   0  0  0  0  0  0  0  0  0  0  0  0
   64.4565   -1.0455   -5.8592 C   0  0  0  0  0  0  0  0  0  0  0  0
   67.7730    2.4192   -7.2719 O   0  0  0  0  0  0  0  0  0  0  0  0
   66.3907   -4.3438   -2.6358 O   0  0  0  0  0  0  0  0  0  0  0  0
   65.8593   -5.0398   -2.3022 H   0  0  0  0  0  0  0  0  0  0  0  0
   54.2770   12.0969  -16.6592 C   0  0  0  0  0  0  0  0  0  0  0  0
   58.8391   11.8242  -14.6330 S   0  0  0  0  0  0  0  0  0  0  0  0
   59.1472   10.8058  -13.7860 H   0  0  0  0  0  0  0  0  0  0  0  0
   40.4143    4.4780  -16.6584 C   0  0  0  0  0  0  0  0  0  0  0  0
   43.2237    0.6184  -18.1473 C   0  0  0  0  0  0  0  0  0  0  0  0
   45.1465    5.2333  -18.0824 N   0  0  0  0  0  0  0  0  0  0  0  0
   47.5785   -1.1724  -19.8291 C   0  0  0  0  0  0  0  0  0  0  0  0
   49.5014    3.4425  -19.7642 N   0  0  0  0  0  0  0  0  0  0  0  0
   48.9895    8.3358  -18.8670 C   0  0  0  0  0  0  0  0  0  0  0  0
   44.4162    5.8090  -17.7592 H   0  0  0  0  0  0  0  0  0  0  0  0
   50.4276    3.3370  -20.0808 H   0  0  0  0  0  0  0  0  0  0  0  0
   19.1504    2.2318  -18.2622 C   0  0  0  0  0  0  0  0  0  0  0  0
   18.1363    6.6083  -16.0658 C   0  0  0  0  0  0  0  0  0  0  0  0
   15.2062    6.7515  -12.0159 C   0  0  0  0  0  0  0  0  0  0  0  0
   17.0120    8.4820   -7.6856 N   0  0  0  0  0  0  0  0  0  0  0  0
   10.4731    5.1650  -12.2962 O   0  0  0  0  0  0  0  0  0  0  0  0
   16.4354    8.5103   -6.8880 H   0  0  0  0  0  0  0  0  0  0  0  0
   17.9440    8.7943   -7.6306 H   0  0  0  0  0  0  0  0  0  0  0  0
   20.0699   -8.5567  -13.4562 C   0  0  0  0  0  0  0  0  0  0  0  0
   24.0244   -6.6778  -15.8721 C   0  0  0  0  0  0  0  0  0  0  0  0
   24.9841   -1.7746  -15.6597 C   0  0  0  0  0  0  0  0  0  0  0  0
   25.0791    0.5631  -11.2406 C   0  0  0  0  0  0  0  0  0  0  0  0
   22.2646    4.6305  -10.5049 N   0  0  0  0  0  0  0  0  0  0  0  0
   22.2837    5.1077   -9.6036 H   0  0  0  0  0  0  0  0  0  0  0  0
   21.6714    4.9830  -11.2561 H   0  0  0  0  0  0  0  0  0  0  0  0
   21.6905    5.4601  -10.3549 H   0  0  0  0  0  0  0  0  0  0  0  0
   17.0777  -21.5432    5.6017 C   0  0  0  0  0  0  0  0  0  0  0  0
   14.5574  -20.8266    1.3428 N   0  0  0  0  0  0  0  0  0  0  0  0
   12.3147  -22.5634    6.7295 O   0  0  0  0  0  0  0  0  0  0  0  0
   13.6196  -21.0275    1.5649 H   0  0  0  0  0  0  0  0  0  0  0  0
   17.1326  -22.7879   10.4444 C   0  0  0  0  0  0  0  0  0  0  0  0
   19.6492  -18.3864   18.6670 C   0  0  0  0  0  0  0  0  0  0  0  0
   18.3474  -21.7217   15.1764 N   0  0  0  0  0  0  0  0  0  0  0  0
   19.8171  -14.0020   16.2687 O   0  0  0  0  0  0  0  0  0  0  0  0
   18.3144  -22.5850   15.6486 H   0  0  0  0  0  0  0  0  0  0  0  0
   20.8633  -17.3215   23.3967 C   0  0  0  0  0  0  0  0  0  0  0  0
   24.3488   -9.5925   28.0263 C   0  0  0  0  0  0  0  0  0  0  0  0
   22.8072  -14.1793   26.7661 N   0  0  0  0  0  0  0  0  0  0  0  0
   25.1259  -12.3837   32.1011 O   0  0  0  0  0  0  0  0  0  0  0  0
   22.9602  -14.7289   27.5684 H   0  0  0  0  0  0  0  0  0  0  0  0
   26.2927   -6.4503   31.3957 C   0  0  0  0  0  0  0  0  0  0  0  0
   29.6310   -6.5857   27.6758 C   0  0  0  0  0  0  0  0  0  0  0  0
   34.0960   -0.7688   31.7790 C   0  0  0  0  0  0  0  0  0  0  0  0
   29.9644   -3.3784   32.8396 N   0  0  0  0  0  0  0  0  0  0  0  0
   34.9843   -1.6624   26.9400 O   0  0  0  0  0  0  0  0  0  0  0  0
   29.7895   -3.2024   33.7923 H   0  0  0  0  0  0  0  0  0  0  0  0
   37.7656    2.3016   33.2228 C   0  0  0  0  0  0  0  0  0  0  0  0
   47.3896    2.3372   32.3884 C   0  0  0  0  0  0  0  0  0  0  0  0
   42.6174    3.5081   33.3154 N   0  0  0  0  0  0  0  0  0  0  0  0
   47.5434    6.9302   34.3581 O   0  0  0  0  0  0  0  0  0  0  0  0
   42.6477    4.4125   33.7032 H   0  0  0  0  0  0  0  0  0  0  0  0
   52.2413    3.5437   32.4809 C   0  0  0  0  0  0  0  0  0  0  0  0
   60.2751    0.5466   28.0318 C   0  0  0  0  0  0  0  0  0  0  0  0
   56.8352    3.1676   30.5421 N   0  0  0  0  0  0  0  0  0  0  0  0
   58.0456   -3.7908   26.9277 O   0  0  0  0  0  0  0  0  0  0  0  0
   57.2742    4.0216   30.7595 H   0  0  0  0  0  0  0  0  0  0  0  0
   69.1078   -1.4519   24.0021 N   0  0  0  0  0  0  0  0  0  0  0  0
   64.8668    0.1713   26.0942 C   0  0  0  0  0  0  0  0  0  0  0  0
   69.2012   -2.4311   23.7325 H   0  0  0  0  0  0  0  0  0  0  0  0
   69.8796   -0.8038   23.8450 H   0  0  0  0  0  0  0  0  0  0  0  0
   69.9730   -1.7831   23.5753 H   0  0  0  0  0  0  0  0  0  0  0  0
   66.7866    4.7771   26.4125 C   0  0  0  0  0  0  0  0  0  0  0  0
   68.7064    9.3827   26.7308 C   0  0  0  0  0  0  0  0  0  0  0  0
   66.3581    4.6116   31.3912 O   0  0  0  0  0  0  0  0  0  0  0  0
   65.9940    3.8218   31.8207 H   0  0  0  0  0  0  0  0  0  0  0  0
   51.7430    0.4861   28.5563 C   0  0  0  0  0  0  0  0  0  0  0  0
   48.9019   -2.5073   25.7326 C   0  0  0  0  0  0  0  0  0  0  0  0
   50.9011   -6.5616   23.5943 C   0  0  0  0  0  0  0  0  0  0  0  0
   50.2356  -11.0640   25.6658 N   0  0  0  0  0  0  0  0  0  0  0  0
   53.5644   -6.1137   19.3866 O   0  0  0  0  0  0  0  0  0  0  0  0
   50.6291  -11.8624   25.2451 H   0  0  0  0  0  0  0  0  0  0  0  0
   49.7112  -11.1520   26.4943 H   0  0  0  0  0  0  0  0  0  0  0  0
   35.4862    5.9051   35.8342 C   0  0  0  0  0  0  0  0  0  0  0  0
   35.3804    9.0053   39.7547 C   0  0  0  0  0  0  0  0  0  0  0  0
   39.4937   11.5294   41.0599 C   0  0  0  0  0  0  0  0  0  0  0  0
   39.3390   16.5064   41.5050 N   0  0  0  0  0  0  0  0  0  0  0  0
   43.7638    9.0751   41.9204 O   0  0  0  0  0  0  0  0  0  0  0  0
   40.1493   17.0030   41.7621 H   0  0  0  0  0  0  0  0  0  0  0  0
   38.4983   16.9898   41.3356 H   0  0  0  0  0  0  0  0  0  0  0  0
   20.4617  -19.7054   27.7742 C   0  0  0  0  0  0  0  0  0  0  0  0
   16.6276  -18.7011   30.8234 O   0  0  0  0  0  0  0  0  0  0  0  0
   16.5493  -19.1633   31.6727 H   0  0  0  0  0  0  0  0  0  0  0  0
   19.3736  -18.3233   10.2305 C   0  0  0  0  0  0  0  0  0  0  0  0
   22.7657  -15.2747    8.1830 C   0  0  0  0  0  0  0  0  0  0  0  0
   23.2160  -20.2263    7.6575 N   0  0  0  0  0  0  0  0  0  0  0  0
   26.9423  -14.6117    5.5157 C   0  0  0  0  0  0  0  0  0  0  0  0
   27.3927  -19.5634    4.9901 N   0  0  0  0  0  0  0  0  0  0  0  0
   25.6941  -24.1820    5.8689 C   0  0  0  0  0  0  0  0  0  0  0  0
   22.4446  -20.6048    8.1380 H   0  0  0  0  0  0  0  0  0  0  0  0
   28.2099  -19.6898    4.4561 H   0  0  0  0  0  0  0  0  0  0  0  0
 97 98  1  0  0  0
 97 99  1  0  0  0
 97100  1  0  0  0
 97101  1  0  0  0
 98102  1  0  0  0
 98 93  1  0  0  0
102103  1  0  0  0
102104  1  0  0  0
104105  1  0  0  0
 93 94  1  0  0  0
 93 95  2  0  0  0
 94 92  1  0  0  0
 94 96  1  0  0  0
 92 88  1  0  0  0
 92106  1  0  0  0
 88 89  1  0  0  0
 88 90  2  0  0  0
 89 87  1  0  0  0
 89 91  1  0  0  0
 87 83  1  0  0  0
 87113  1  0  0  0
 83 84  1  0  0  0
 83 85  2  0  0  0
 84 81  1  0  0  0
 84 86  1  0  0  0
 81 77  1  0  0  0
 81 82  1  0  0  0
 77 78  1  0  0  0
 77 79  2  0  0  0
 78 76  1  0  0  0
 78 80  1  0  0  0
 76 72  1  0  0  0
 76120  1  0  0  0
 72 73  1  0  0  0
 72 74  2  0  0  0
 73 71  1  0  0  0
 73 75  1  0  0  0
 71 67  1  0  0  0
 71123  1  0  0  0
106107  1  0  0  0
107108  1  0  0  0
108109  1  0  0  0
108110  2  0  0  0
109111  1  0  0  0
109112  1  0  0  0
113114  1  0  0  0
114115  1  0  0  0
115116  1  0  0  0
115117  2  0  0  0
116118  1  0  0  0
116119  1  0  0  0
120121  1  0  0  0
121122  1  0  0  0
 67 68  1  0  0  0
 67 69  2  0  0  0
 68  1  1  0  0  0
 68 70  1  0  0  0
  1 10  1  0  0  0
  1  2  1  0  0  0
 10 11  1  0  0  0
 10 12  2  0  0  0
 11 14  1  0  0  0
 11 13  1  0  0  0
 14 15  1  0  0  0
 14 59  1  0  0  0
 15 16  1  0  0  0
 15 17  2  0  0  0
 16 19  1  0  0  0
 16 18  1  0  0  0
 19 20  1  0  0  0
 19 52  1  0  0  0
123124  1  0  0  0
124125  1  0  0  0
124126  2  0  0  0
125128  1  0  0  0
125129  1  0  0  0
126127  1  0  0  0
127128  2  0  0  0
127130  1  0  0  0
  2  3  2  0  0  0
  3  4  1  0  0  0
  4  5  2  0  0  0
  5  6  1  0  0  0
  5  8  1  0  0  0
  6  7  2  0  0  0
  7  2  1  0  0  0
  8  9  1  0  0  0
 59 60  1  0  0  0
 60 61  1  0  0  0
 61 62  1  0  0  0
 62 63  1  0  0  0
 63 64  1  0  0  0
 63 65  1  0  0  0
 63 66  1  0  0  0
 20 21  1  0  0  0
 20 22  2  0  0  0
 21 24  1  0  0  0
 21 23  1  0  0  0
 24 25  1  0  0  0
 24 44  1  0  0  0
 25 26  1  0  0  0
 25 27  2  0  0  0
 26 29  1  0  0  0
 26 28  1  0  0  0
 29 30  1  0  0  0
 29 41  1  0  0  0
 30 31  1  0  0  0
 30 33  2  0  0  0
 31 32  1  0  0  0
 31 35  1  0  0  0
 32 37  1  0  0  0
 32 34  1  0  0  0
 37 38  2  0  0  0
 37 39  1  0  0  0
 52 53  1  0  0  0
 53 54  1  0  0  0
 54 55  1  0  0  0
 54 56  2  0  0  0
 55 57  1  0  0  0
 55 58  1  0  0  0
 44 45  1  0  0  0
 45 46  1  0  0  0
 45 47  2  0  0  0
 46 49  1  0  0  0
 46 50  1  0  0  0
 47 48  1  0  0  0
 48 49  2  0  0  0
 48 51  1  0  0  0
 41 42  1  0  0  0
 42 43  1  0  0  0
 39 40  1  0  0  0
 34 36  1  0  0  0
 35 36  1  0  0  0
M  CHG 1  48   1
M  CHG 1  63   1
M  CHG 1  97   1
M  CHG 1 127   1
M  END
> <minimizedAffinity>
-8.64251

$$$$



130133  0  0  0  0  0  0  0  0999 V2000
   42.2811   -1.5110   -8.0185 C   0  0  0  0  0  0  0  0  0  0  0  0
   42.6053   -0.3705  -12.8759 C   0  0  0  0  0  0  0  0  0  0  0  0
   46.8714    1.4620  -14.7343 C   0  0  0  0  0  0  0  0  0  0  0  0
   47.1957    2.6025  -19.5917 C   0  0  0  0  0  0  0  0  0  0  0  0
   43.2538    1.9104  -22.5905 C   0  0  0  0  0  0  0  0  0  0  0  0
   38.9902    0.0787  -20.7320 C   0  0  0  0  0  0  0  0  0  0  0  0
   38.6660   -1.0618  -15.8747 C   0  0  0  0  0  0  0  0  0  0  0  0
   43.5781    3.0509  -27.4482 O   0  0  0  0  0  0  0  0  0  0  0  0
   44.3774    3.3943  -27.7965 H   0  0  0  0  0  0  0  0  0  0  0  0
   45.6735   -5.1111   -7.3053 C   0  0  0  0  0  0  0  0  0  0  0  0
   46.7775   -9.9079   -6.4243 N   0  0  0  0  0  0  0  0  0  0  0  0
   50.0977   -2.8035   -7.6286 O   0  0  0  0  0  0  0  0  0  0  0  0
   45.9064  -10.3623   -6.3607 H   0  0  0  0  0  0  0  0  0  0  0  0
   50.1712  -13.5104   -5.7107 C   0  0  0  0  0  0  0  0  0  0  0  0
   51.6227  -17.6941   -3.3884 C   0  0  0  0  0  0  0  0  0  0  0  0
   54.8612  -20.1121   -0.4439 N   0  0  0  0  0  0  0  0  0  0  0  0
   55.0748  -14.2827   -2.1864 O   0  0  0  0  0  0  0  0  0  0  0  0
   55.5409  -19.4404   -0.2072 H   0  0  0  0  0  0  0  0  0  0  0  0
   56.3127  -24.2958    1.8785 C   0  0  0  0  0  0  0  0  0  0  0  0
   57.0214  -26.8817    6.0962 C   0  0  0  0  0  0  0  0  0  0  0  0
   58.8023  -30.9148    8.4556 N   0  0  0  0  0  0  0  0  0  0  0  0
   54.9510  -24.0890    9.6903 O   0  0  0  0  0  0  0  0  0  0  0  0
   59.2100  -31.4646    7.7480 H   0  0  0  0  0  0  0  0  0  0  0  0
   59.5117  -33.5024   12.6751 C   0  0  0  0  0  0  0  0  0  0  0  0
   59.4229  -33.7530   17.6685 C   0  0  0  0  0  0  0  0  0  0  0  0
   60.6369  -31.8333   22.1233 N   0  0  0  0  0  0  0  0  0  0  0  0
   61.9400  -29.5601   16.6280 O   0  0  0  0  0  0  0  0  0  0  0  0
   61.1326  -31.0077   21.9184 H   0  0  0  0  0  0  0  0  0  0  0  0
   60.5481  -32.0839   27.1165 C   0  0  0  0  0  0  0  0  0  0  0  0
   57.9733  -32.3634   31.3910 C   0  0  0  0  0  0  0  0  0  0  0  0
   54.0689  -30.9814   34.1927 N   0  0  0  0  0  0  0  0  0  0  0  0
   51.4923  -31.2607   38.4691 C   0  0  0  0  0  0  0  0  0  0  0  0
   60.5388  -35.5733   34.2402 O   0  0  0  0  0  0  0  0  0  0  0  0
   47.5925  -28.1955   37.8343 C   0  0  0  0  0  0  0  0  0  0  0  0
   51.5035  -27.7718   31.3436 C   0  0  0  0  0  0  0  0  0  0  0  0
   47.0489  -25.7014   33.5344 C   0  0  0  0  0  0  0  0  0  0  0  0
   47.5879  -29.8787   41.2708 C   0  0  0  0  0  0  0  0  0  0  0  0
   51.2455  -30.8507   44.5382 O   0  0  0  0  0  0  0  0  0  0  0  0
   43.3587  -28.4253   43.5095 O   0  0  0  0  0  0  0  0  0  0  0  0
   42.6041  -28.2160   42.9948 H   0  0  0  0  0  0  0  0  0  0  0  0
   64.0197  -32.1723   30.7129 C   0  0  0  0  0  0  0  0  0  0  0  0
   62.6644  -32.8042   35.4833 S   0  0  0  0  0  0  0  0  0  0  0  0
   61.3508  -32.9521   35.8031 H   0  0  0  0  0  0  0  0  0  0  0  0
   58.3369  -30.3269   16.3553 C   0  0  0  0  0  0  0  0  0  0  0  0
   60.9698  -26.1187   16.9595 C   0  0  0  0  0  0  0  0  0  0  0  0
   62.4566  -29.5433   13.6338 N   0  0  0  0  0  0  0  0  0  0  0  0
   64.8689  -23.2377   15.7361 C   0  0  0  0  0  0  0  0  0  0  0  0
   66.3558  -26.6623   12.4104 N   0  0  0  0  0  0  0  0  0  0  0  0
   65.6941  -31.0697   10.1411 C   0  0  0  0  0  0  0  0  0  0  0  0
   61.7908  -30.2657   13.6971 H   0  0  0  0  0  0  0  0  0  0  0  0
   67.1732  -26.2889   12.0082 H   0  0  0  0  0  0  0  0  0  0  0  0
   56.9953  -25.2129   -2.9898 C   0  0  0  0  0  0  0  0  0  0  0  0
   53.8996  -23.2095   -6.3676 C   0  0  0  0  0  0  0  0  0  0  0  0
   52.9828  -25.6166  -10.6539 C   0  0  0  0  0  0  0  0  0  0  0  0
   54.5143  -23.6615  -14.9943 N   0  0  0  0  0  0  0  0  0  0  0  0
   50.5359  -29.9764  -10.5998 O   0  0  0  0  0  0  0  0  0  0  0  0
   54.3340  -24.1351  -15.8384 H   0  0  0  0  0  0  0  0  0  0  0  0
   54.9961  -22.8030  -15.0047 H   0  0  0  0  0  0  0  0  0  0  0  0
   48.1762  -16.4990   -2.2330 C   0  0  0  0  0  0  0  0  0  0  0  0
   44.2479  -19.3777   -3.3677 C   0  0  0  0  0  0  0  0  0  0  0  0
   40.6299  -17.6116   -6.3337 C   0  0  0  0  0  0  0  0  0  0  0  0
   36.4972  -15.6363   -4.3283 C   0  0  0  0  0  0  0  0  0  0  0  0
   34.5395  -11.4558   -6.2511 N   0  0  0  0  0  0  0  0  0  0  0  0
   33.6965  -11.0526   -5.8424 H   0  0  0  0  0  0  0  0  0  0  0  0
   34.9831  -11.0064   -7.0521 H   0  0  0  0  0  0  0  0  0  0  0  0
   34.1402  -10.6031   -6.6433 H   0  0  0  0  0  0  0  0  0  0  0  0
   34.7649    4.4667   -6.9737 C   0  0  0  0  0  0  0  0  0  0  0  0
   38.7188    1.5006   -6.2172 N   0  0  0  0  0  0  0  0  0  0  0  0
   35.5217    4.5546   -2.0322 O   0  0  0  0  0  0  0  0  0  0  0  0
   38.8678    1.5179   -5.2442 H   0  0  0  0  0  0  0  0  0  0  0  0
   31.2027    7.4784   -5.1724 C   0  0  0  0  0  0  0  0  0  0  0  0
   26.8221    8.5473    3.3708 C   0  0  0  0  0  0  0  0  0  0  0  0
   28.2160    8.8913   -1.4190 N   0  0  0  0  0  0  0  0  0  0  0  0
   29.8993    5.1527    5.3734 O   0  0  0  0  0  0  0  0  0  0  0  0
   27.6102    9.5597   -1.8133 H   0  0  0  0  0  0  0  0  0  0  0  0
   23.8366    9.9599    7.1218 C   0  0  0  0  0  0  0  0  0  0  0  0
   23.5981    8.3884   16.6503 C   0  0  0  0  0  0  0  0  0  0  0  0
   22.5709    9.7701   11.9556 N   0  0  0  0  0  0  0  0  0  0  0  0
   19.1682   10.6911   16.9192 O   0  0  0  0  0  0  0  0  0  0  0  0
   21.6986   10.2235   12.0086 H   0  0  0  0  0  0  0  0  0  0  0  0
   22.3324    8.1986   21.4842 C   0  0  0  0  0  0  0  0  0  0  0  0
   26.4306    5.3591   21.1073 C   0  0  0  0  0  0  0  0  0  0  0  0
   24.7562    2.9332   29.2119 C   0  0  0  0  0  0  0  0  0  0  0  0
   23.1879    6.5391   26.1229 N   0  0  0  0  0  0  0  0  0  0  0  0
   26.1332   -0.8273   26.2178 O   0  0  0  0  0  0  0  0  0  0  0  0
   22.9168    7.2795   26.7124 H   0  0  0  0  0  0  0  0  0  0  0  0
   25.6110    1.2752   33.8486 C   0  0  0  0  0  0  0  0  0  0  0  0
   30.2523    1.9301   42.2954 C   0  0  0  0  0  0  0  0  0  0  0  0
   28.7163    0.6373   37.7157 N   0  0  0  0  0  0  0  0  0  0  0  0
   33.2842   -1.7996   40.9186 O   0  0  0  0  0  0  0  0  0  0  0  0
   29.3133   -0.0971   37.4446 H   0  0  0  0  0  0  0  0  0  0  0  0
   33.3576    1.2923   46.1624 C   0  0  0  0  0  0  0  0  0  0  0  0
   42.7498   -0.7469   47.1355 C   0  0  0  0  0  0  0  0  0  0  0  0
   37.9587    0.4452   47.9279 N   0  0  0  0  0  0  0  0  0  0  0  0
   43.1171   -1.4134   42.1934 O   0  0  0  0  0  0  0  0  0  0  0  0
   37.8863    0.5764   48.9009 H   0  0  0  0  0  0  0  0  0  0  0  0
   52.0760   -1.1561   50.4677 N   0  0  0  0  0  0  0  0  0  0  0  0
   47.3483   -1.5934   48.9006 C   0  0  0  0  0  0  0  0  0  0  0  0
   52.5352   -0.2454   50.4554 H   0  0  0  0  0  0  0  0  0  0  0  0
   52.5813   -1.9775   50.7997 H   0  0  0  0  0  0  0  0  0  0  0  0
   53.0405   -1.0669   50.7874 H   0  0  0  0  0  0  0  0  0  0  0  0
   47.4788   -6.4958   49.8751 C   0  0  0  0  0  0  0  0  0  0  0  0
   47.6093  -11.3981   50.8494 C   0  0  0  0  0  0  0  0  0  0  0  0
   45.5456   -7.4441   45.3627 O   0  0  0  0  0  0  0  0  0  0  0  0
   45.3362   -6.7125   44.7612 H   0  0  0  0  0  0  0  0  0  0  0  0
   36.2473    0.8880   42.1021 C   0  0  0  0  0  0  0  0  0  0  0  0
   40.7231    0.0395   40.0398 C   0  0  0  0  0  0  0  0  0  0  0  0
   44.8403    1.9654   42.1245 C   0  0  0  0  0  0  0  0  0  0  0  0
   47.9063    4.8360   39.4107 N   0  0  0  0  0  0  0  0  0  0  0  0
   45.8909    1.0211   46.9206 O   0  0  0  0  0  0  0  0  0  0  0  0
   48.7170    5.2154   39.8208 H   0  0  0  0  0  0  0  0  0  0  0  0
   47.6993    5.0219   38.4663 H   0  0  0  0  0  0  0  0  0  0  0  0
   21.2652   -0.6972   35.3399 C   0  0  0  0  0  0  0  0  0  0  0  0
   16.2710   -0.8152   35.1482 C   0  0  0  0  0  0  0  0  0  0  0  0
   13.6498   -2.3303   39.1265 C   0  0  0  0  0  0  0  0  0  0  0  0
   14.8268   -0.6504   43.6856 N   0  0  0  0  0  0  0  0  0  0  0  0
    9.8496   -5.5270   38.5454 O   0  0  0  0  0  0  0  0  0  0  0  0
   14.3103   -0.9490   44.4688 H   0  0  0  0  0  0  0  0  0  0  0  0
   15.5751   -0.0209   43.8003 H   0  0  0  0  0  0  0  0  0  0  0  0
   19.8562   12.9584    7.5374 C   0  0  0  0  0  0  0  0  0  0  0  0
   16.2373   11.8671   10.8113 O   0  0  0  0  0  0  0  0  0  0  0  0
   15.4650   12.4485   10.8923 H   0  0  0  0  0  0  0  0  0  0  0  0
   32.3147    4.3897   -1.4010 C   0  0  0  0  0  0  0  0  0  0  0  0
   35.3434    3.0381    2.3398 C   0  0  0  0  0  0  0  0  0  0  0  0
   31.6395    6.2912    3.1744 N   0  0  0  0  0  0  0  0  0  0  0  0
   36.7032    3.3546    7.1408 C   0  0  0  0  0  0  0  0  0  0  0  0
   32.9994    6.6078    7.9754 N   0  0  0  0  0  0  0  0  0  0  0  0
   29.1127    9.2661    6.2973 C   0  0  0  0  0  0  0  0  0  0  0  0
   31.1921    6.3969    2.3039 H   0  0  0  0  0  0  0  0  0  0  0  0
   33.0692    6.8338    8.9310 H   0  0  0  0  0  0  0  0  0  0  0  0
 97 98  1  0  0  0
 97 99  1  0  0  0
 97100  1  0  0  0
 97101  1  0  0  0
 98102  1  0  0  0
 98 93  1  0  0  0
102103  1  0  0  0
102104  1  0  0  0
104105  1  0  0  0
 93 94  1  0  0  0
 93 95  2  0  0  0
 94 92  1  0  0  0
 94 96  1  0  0  0
 92 88  1  0  0  0
 92106  1  0  0  0
 88 89  1  0  0  0
 88 90  2  0  0  0
 89 87  1  0  0  0
 89 91  1  0  0  0
 87 83  1  0  0  0
 87113  1  0  0  0
 83 84  1  0  0  0
 83 85  2  0  0  0
 84 81  1  0  0  0
 84 86  1  0  0  0
 81 77  1  0  0  0
 81 82  1  0  0  0
 77 78  1  0  0  0
 77 79  2  0  0  0
 78 76  1  0  0  0
 78 80  1  0  0  0
 76 72  1  0  0  0
 76120  1  0  0  0
 72 73  1  0  0  0
 72 74  2  0  0  0
 73 71  1  0  0  0
 73 75  1  0  0  0
 71 67  1  0  0  0
 71123  1  0  0  0
106107  1  0  0  0
107108  1  0  0  0
108109  1  0  0  0
108110  2  0  0  0
109111  1  0  0  0
109112  1  0  0  0
113114  1  0  0  0
114115  1  0  0  0
115116  1  0  0  0
115117  2  0  0  0
116118  1  0  0  0
116119  1  0  0  0
120121  1  0  0  0
121122  1  0  0  0
 67 68  1  0  0  0
 67 69  2  0  0  0
 68  1  1  0  0  0
 68 70  1  0  0  0
  1 10  1  0  0  0
  1  2  1  0  0  0
 10 11  1  0  0  0
 10 12  2  0  0  0
 11 14  1  0  0  0
 11 13  1  0  0  0
 14 15  1  0  0  0
 14 59  1  0  0  0
 15 16  1  0  0  0
 15 17  2  0  0  0
 16 19  1  0  0  0
 16 18  1  0  0  0
 19 20  1  0  0  0
 19 52  1  0  0  0
123124  1  0  0  0
124125  1  0  0  0
124126  2  0  0  0
125128  1  0  0  0
125129  1  0  0  0
126127  1  0  0  0
127128  2  0  0  0
127130  1  0  0  0
  2  3  2  0  0  0
  3  4  1  0  0  0
  4  5  2  0  0  0
  5  6  1  0  0  0
  5  8  1  0  0  0
  6  7  2  0  0  0
  7  2  1  0  0  0
  8  9  1  0  0  0
 59 60  1  0  0  0
 60 61  1  0  0  0
 61 62  1  0  0  0
 62 63  1  0  0  0
 63 64  1  0  0  0
 63 65  1  0  0  0
 63 66  1  0  0  0
 20 21  1  0  0  0
 20 22  2  0  0  0
 21 24  1  0  0  0
 21 23  1  0  0  0
 24 25  1  0  0  0
 24 44  1  0  0  0
 25 26  1  0  0  0
 25 27  2  0  0  0
 26 29  1  0  0  0
 26 28  1  0  0  0
 29 30  1  0  0  0
 29 41  1  0  0  0
 30 31  1  0  0  0
 30 33  2  0  0  0
 31 32  1  0  0  0
 31 35  1  0  0  0
 32 37  1  0  0  0
 32 34  1  0  0  0
 37 38  2  0  0  0
 37 39  1  0  0  0
 52 53  1  0  0  0
 53 54  1  0  0  0
 54 55  1  0  0  0
 54 56  2  0  0  0
 55 57  1  0  0  0
 55 58  1  0  0  0
 44 45  1  0  0  0
 45 46  1  0  0  0
 45 47  2  0  0  0
 46 49  1  0  0  0
 46 50  1  0  0  0
 47 48  1  0  0  0
 48 49  2  0  0  0
 48 51  1  0  0  0
 41 42  1  0  0  0
 42 43  1  0  0  0
 39 40  1  0  0  0
 34 36  1  0  0  0
 35 36  1  0  0  0
M  CHG 1  48   1
M  CHG 1  63   1
M  CHG 1  97   1
M  CHG 1 127   1
M  END
> <minimizedAffinity>
-8.60106

$$$$



130133  0  0  0  0  0  0  0  0999 V2000
   14.5304  -19.4887   -3.5159 C   0  0  0  0  0  0  0  0  0  0  0  0
   11.2975  -22.6772   -5.6091 C   0  0  0  0  0  0  0  0  0  0  0  0
   12.8615  -25.8810   -9.1164 C   0  0  0  0  0  0  0  0  0  0  0  0
    9.6285  -29.0695  -11.2096 C   0  0  0  0  0  0  0  0  0  0  0  0
    4.8317  -29.0541   -9.7954 C   0  0  0  0  0  0  0  0  0  0  0  0
    3.2694  -25.8515   -6.2898 C   0  0  0  0  0  0  0  0  0  0  0  0
    6.5023  -22.6630   -4.1966 C   0  0  0  0  0  0  0  0  0  0  0  0
    1.5985  -32.2429  -11.8888 O   0  0  0  0  0  0  0  0  0  0  0  0
    1.8915  -32.8432  -12.5459 H   0  0  0  0  0  0  0  0  0  0  0  0
   16.2141  -16.6854   -7.2955 C   0  0  0  0  0  0  0  0  0  0  0  0
   15.6810  -14.9025  -11.9368 N   0  0  0  0  0  0  0  0  0  0  0  0
   20.4978  -14.7116   -5.6352 O   0  0  0  0  0  0  0  0  0  0  0  0
   14.8375  -15.2911  -12.2637 H   0  0  0  0  0  0  0  0  0  0  0  0
   17.3649  -12.0980  -15.7187 C   0  0  0  0  0  0  0  0  0  0  0  0
   20.0123   -8.1895  -17.3674 C   0  0  0  0  0  0  0  0  0  0  0  0
   21.2474   -3.3540  -17.0555 N   0  0  0  0  0  0  0  0  0  0  0  0
   17.2838   -6.3989  -13.5796 O   0  0  0  0  0  0  0  0  0  0  0  0
   20.7102   -3.0014  -16.3096 H   0  0  0  0  0  0  0  0  0  0  0  0
   23.8949    0.5546  -18.7042 C   0  0  0  0  0  0  0  0  0  0  0  0
   28.2765    2.5730  -20.0103 C   0  0  0  0  0  0  0  0  0  0  0  0
   33.2439    2.8405  -19.5027 N   0  0  0  0  0  0  0  0  0  0  0  0
   27.1497    5.9570  -23.5148 O   0  0  0  0  0  0  0  0  0  0  0  0
   33.4657    2.1742  -18.8127 H   0  0  0  0  0  0  0  0  0  0  0  0
   37.6280    4.8595  -20.8090 C   0  0  0  0  0  0  0  0  0  0  0  0
   42.4592    4.3327  -21.9864 C   0  0  0  0  0  0  0  0  0  0  0  0
   47.0073    2.5494  -20.9191 N   0  0  0  0  0  0  0  0  0  0  0  0
   41.9122    1.9052  -17.6497 O   0  0  0  0  0  0  0  0  0  0  0  0
   46.8996    2.0714  -20.0652 H   0  0  0  0  0  0  0  0  0  0  0  0
   51.8384    2.0225  -22.0966 C   0  0  0  0  0  0  0  0  0  0  0  0
   55.5305   -0.6667  -24.1251 C   0  0  0  0  0  0  0  0  0  0  0  0
   57.0648   -4.6881  -26.6703 N   0  0  0  0  0  0  0  0  0  0  0  0
   60.7584   -7.3792  -28.7001 C   0  0  0  0  0  0  0  0  0  0  0  0
   59.7024    1.9036  -23.1292 O   0  0  0  0  0  0  0  0  0  0  0  0
   58.4992  -11.3431  -30.7471 C   0  0  0  0  0  0  0  0  0  0  0  0
   52.8932   -7.2583  -27.6662 C   0  0  0  0  0  0  0  0  0  0  0  0
   53.5329  -11.8309  -30.4250 C   0  0  0  0  0  0  0  0  0  0  0  0
   62.2927  -11.4006  -31.2453 C   0  0  0  0  0  0  0  0  0  0  0  0
   59.2309  -13.1905  -27.7211 O   0  0  0  0  0  0  0  0  0  0  0  0
   64.1742  -15.0056  -34.1563 O   0  0  0  0  0  0  0  0  0  0  0  0
   64.7619  -14.7867  -34.8525 H   0  0  0  0  0  0  0  0  0  0  0  0
   55.9455    4.8100  -21.5005 C   0  0  0  0  0  0  0  0  0  0  0  0
   59.3830    5.0071  -25.1251 S   0  0  0  0  0  0  0  0  0  0  0  0
   59.2010    4.3022  -26.2739 H   0  0  0  0  0  0  0  0  0  0  0  0
   40.7620    0.9862  -21.2365 C   0  0  0  0  0  0  0  0  0  0  0  0
   45.0169    1.4879  -23.8153 C   0  0  0  0  0  0  0  0  0  0  0  0
   40.6950    3.0375  -25.7950 N   0  0  0  0  0  0  0  0  0  0  0  0
   47.4335    2.9624  -27.9367 C   0  0  0  0  0  0  0  0  0  0  0  0
   43.1116    4.5120  -29.9165 N   0  0  0  0  0  0  0  0  0  0  0  0
   38.1592    5.1170  -29.5706 C   0  0  0  0  0  0  0  0  0  0  0  0
   40.0152    2.8360  -25.1120 H   0  0  0  0  0  0  0  0  0  0  0  0
   43.3510    4.8714  -30.8012 H   0  0  0  0  0  0  0  0  0  0  0  0
   19.1694    2.1794  -18.5108 C   0  0  0  0  0  0  0  0  0  0  0  0
   18.0796    6.4094  -16.0765 C   0  0  0  0  0  0  0  0  0  0  0  0
   13.7541    6.8244  -13.6017 C   0  0  0  0  0  0  0  0  0  0  0  0
   11.9842    2.9409  -10.9953 N   0  0  0  0  0  0  0  0  0  0  0  0
   11.1997   11.1205  -13.7333 O   0  0  0  0  0  0  0  0  0  0  0  0
   11.1327    3.0222  -10.5080 H   0  0  0  0  0  0  0  0  0  0  0  0
   12.4874    2.0951  -10.9695 H   0  0  0  0  0  0  0  0  0  0  0  0
   20.0985   -8.5125  -13.5556 C   0  0  0  0  0  0  0  0  0  0  0  0
   24.0392   -6.5844  -15.9553 C   0  0  0  0  0  0  0  0  0  0  0  0
   24.9537   -1.6740  -15.7146 C   0  0  0  0  0  0  0  0  0  0  0  0
   25.0772    0.6296  -11.2783 C   0  0  0  0  0  0  0  0  0  0  0  0
   22.2013    4.6387  -10.4641 N   0  0  0  0  0  0  0  0  0  0  0  0
   22.2262    5.1089   -9.5593 H   0  0  0  0  0  0  0  0  0  0  0  0
   21.5899    4.9863  -11.2028 H   0  0  0  0  0  0  0  0  0  0  0  0
   21.6148    5.4565  -10.2980 H   0  0  0  0  0  0  0  0  0  0  0  0
   16.9986  -21.4098    5.6238 C   0  0  0  0  0  0  0  0  0  0  0  0
   14.5197  -20.6427    1.3495 N   0  0  0  0  0  0  0  0  0  0  0  0
   12.1886  -22.1571    6.7657 O   0  0  0  0  0  0  0  0  0  0  0  0
   13.5725  -20.7898    1.5743 H   0  0  0  0  0  0  0  0  0  0  0  0
   16.9878  -22.5638   10.4893 C   0  0  0  0  0  0  0  0  0  0  0  0
   19.8551  -18.2804   18.6593 C   0  0  0  0  0  0  0  0  0  0  0  0
   18.4035  -21.5654   15.1800 N   0  0  0  0  0  0  0  0  0  0  0  0
   19.9248  -13.8624   16.3185 O   0  0  0  0  0  0  0  0  0  0  0  0
   18.3897  -22.4352   15.6409 H   0  0  0  0  0  0  0  0  0  0  0  0
   21.2699  -17.2832   23.3478 C   0  0  0  0  0  0  0  0  0  0  0  0
   24.5977   -9.4919   27.9891 C   0  0  0  0  0  0  0  0  0  0  0  0
   23.1575  -14.1090   26.7191 N   0  0  0  0  0  0  0  0  0  0  0  0
   25.4619  -12.2795   32.0488 O   0  0  0  0  0  0  0  0  0  0  0  0
   23.3276  -14.6579   27.5185 H   0  0  0  0  0  0  0  0  0  0  0  0
   26.4852   -6.3177   31.3604 C   0  0  0  0  0  0  0  0  0  0  0  0
   29.7632   -6.2954   27.5850 C   0  0  0  0  0  0  0  0  0  0  0  0
   33.9797   -0.2291   31.6429 C   0  0  0  0  0  0  0  0  0  0  0  0
   30.0694   -3.1320   32.7775 N   0  0  0  0  0  0  0  0  0  0  0  0
   34.6095   -0.7756   26.7126 O   0  0  0  0  0  0  0  0  0  0  0  0
   29.9454   -3.0244   33.7482 H   0  0  0  0  0  0  0  0  0  0  0  0
   37.5618    2.9550   33.0599 C   0  0  0  0  0  0  0  0  0  0  0  0
   46.1231    6.6183   30.4899 C   0  0  0  0  0  0  0  0  0  0  0  0
   42.3330    4.4454   32.9227 N   0  0  0  0  0  0  0  0  0  0  0  0
   48.0185    5.2999   34.9248 O   0  0  0  0  0  0  0  0  0  0  0  0
   42.7062    4.1858   33.7960 H   0  0  0  0  0  0  0  0  0  0  0  0
   50.8941    8.1087   30.3528 C   0  0  0  0  0  0  0  0  0  0  0  0
   58.4937    9.7327   24.6145 C   0  0  0  0  0  0  0  0  0  0  0  0
   55.3856    8.0578   28.1555 N   0  0  0  0  0  0  0  0  0  0  0  0
   55.8208   13.0670   22.0182 O   0  0  0  0  0  0  0  0  0  0  0  0
   55.9119    7.4013   28.6667 H   0  0  0  0  0  0  0  0  0  0  0  0
   67.3202   10.9258   20.2648 N   0  0  0  0  0  0  0  0  0  0  0  0
   62.9831    9.6813   22.4188 C   0  0  0  0  0  0  0  0  0  0  0  0
   67.5564   11.9080   20.1243 H   0  0  0  0  0  0  0  0  0  0  0  0
   67.9687   10.1975   19.9660 H   0  0  0  0  0  0  0  0  0  0  0  0
   68.2049   11.1797   19.8254 H   0  0  0  0  0  0  0  0  0  0  0  0
   64.1498    4.8400   21.9707 C   0  0  0  0  0  0  0  0  0  0  0  0
   65.3164   -0.0012   21.5227 C   0  0  0  0  0  0  0  0  0  0  0  0
   59.9213    3.6023   24.3341 O   0  0  0  0  0  0  0  0  0  0  0  0
   59.3151    4.2956   24.6386 H   0  0  0  0  0  0  0  0  0  0  0  0
   50.3538    5.1309   26.3728 C   0  0  0  0  0  0  0  0  0  0  0  0
   51.9239    3.5668   21.8901 C   0  0  0  0  0  0  0  0  0  0  0  0
   56.0625    5.5174   19.8718 C   0  0  0  0  0  0  0  0  0  0  0  0
   58.7734    2.8292   16.6422 N   0  0  0  0  0  0  0  0  0  0  0  0
   57.4893   10.1538   21.0824 O   0  0  0  0  0  0  0  0  0  0  0  0
   59.5883    3.2129   16.2447 H   0  0  0  0  0  0  0  0  0  0  0  0
   58.4923    1.9162   16.4040 H   0  0  0  0  0  0  0  0  0  0  0  0
   35.2692    6.2296   36.0634 C   0  0  0  0  0  0  0  0  0  0  0  0
   35.4158   10.3478   38.8938 C   0  0  0  0  0  0  0  0  0  0  0  0
   39.3699   11.2311   41.8227 C   0  0  0  0  0  0  0  0  0  0  0  0
   42.5983    7.5530   42.8438 N   0  0  0  0  0  0  0  0  0  0  0  0
   40.0960   15.7948   43.7315 O   0  0  0  0  0  0  0  0  0  0  0  0
   43.3768    7.7274   43.4206 H   0  0  0  0  0  0  0  0  0  0  0  0
   42.4555    6.6543   42.4680 H   0  0  0  0  0  0  0  0  0  0  0  0
   21.3358  -19.8434   27.6429 C   0  0  0  0  0  0  0  0  0  0  0  0
   17.6295  -19.2697   30.9505 O   0  0  0  0  0  0  0  0  0  0  0  0
   17.6419  -19.7661   31.7838 H   0  0  0  0  0  0  0  0  0  0  0  0
   19.7436  -18.4054   10.1518 C   0  0  0  0  0  0  0  0  0  0  0  0
   23.2760  -15.7274    7.8403 C   0  0  0  0  0  0  0  0  0  0  0  0
   24.1230  -17.5620   12.4136 N   0  0  0  0  0  0  0  0  0  0  0  0
   27.8436  -13.6938    7.8102 C   0  0  0  0  0  0  0  0  0  0  0  0
   28.6905  -15.5284   12.3835 N   0  0  0  0  0  0  0  0  0  0  0  0
   27.1399  -18.1336   16.3581 C   0  0  0  0  0  0  0  0  0  0  0  0
   23.2975  -18.0423   12.6525 H   0  0  0  0  0  0  0  0  0  0  0  0
   29.6024  -15.2351   12.6110 H   0  0  0  0  0  0  0  0  0  0  0  0
 97 98  1  0  0  0
 97 99  1  0  0  0
 97100  1  0  0  0
 97101  1  0  0  0
 98102  1  0  0  0
 98 93  1  0  0  0
102103  1  0  0  0
102104  1  0  0  0
104105  1  0  0  0
 93 94  1  0  0  0
 93 95  2  0  0  0
 94 92  1  0  0  0
 94 96  1  0  0  0
 92 88  1  0  0  0
 92106  1  0  0  0
 88 89  1  0  0  0
 88 90  2  0  0  0
 89 87  1  0  0  0
 89 91  1  0  0  0
 87 83  1  0  0  0
 87113  1  0  0  0
 83 84  1  0  0  0
 83 85  2  0  0  0
 84 81  1  0  0  0
 84 86  1  0  0  0
 81 77  1  0  0  0
 81 82  1  0  0  0
 77 78  1  0  0  0
 77 79  2  0  0  0
 78 76  1  0  0  0
 78 80  1  0  0  0
 76 72  1  0  0  0
 76120  1  0  0  0
 72 73  1  0  0  0
 72 74  2  0  0  0
 73 71  1  0  0  0
 73 75  1  0  0  0
 71 67  1  0  0  0
 71123  1  0  0  0
106107  1  0  0  0
107108  1  0  0  0
108109  1  0  0  0
108110  2  0  0  0
109111  1  0  0  0
109112  1  0  0  0
113114  1  0  0  0
114115  1  0  0  0
115116  1  0  0  0
115117  2  0  0  0
116118  1  0  0  0
116119  1  0  0  0
120121  1  0  0  0
121122  1  0  0  0
 67 68  1  0  0  0
 67 69  2  0  0  0
 68  1  1  0  0  0
 68 70  1  0  0  0
  1 10  1  0  0  0
  1  2  1  0  0  0
 10 11  1  0  0  0
 10 12  2  0  0  0
 11 14  1  0  0  0
 11 13  1  0  0  0
 14 15  1  0  0  0
 14 59  1  0  0  0
 15 16  1  0  0  0
 15 17  2  0  0  0
 16 19  1  0  0  0
 16 18  1  0  0  0
 19 20  1  0  0  0
 19 52  1  0  0  0
123124  1  0  0  0
124125  1  0  0  0
124126  2  0  0  0
125128  1  0  0  0
125129  1  0  0  0
126127  1  0  0  0
127128  2  0  0  0
127130  1  0  0  0
  2  3  2  0  0  0
  3  4  1  0  0  0
  4  5  2  0  0  0
  5  6  1  0  0  0
  5  8  1  0  0  0
  6  7  2  0  0  0
  7  2  1  0  0  0
  8  9  1  0  0  0
 59 60  1  0  0  0
 60 61  1  0  0  0
 61 62  1  0  0  0
 62 63  1  0  0  0
 63 64  1  0  0  0
 63 65  1  0  0  0
 63 66  1  0  0  0
 20 21  1  0  0  0
 20 22  2  0  0  0
 21 24  1  0  0  0
 21 23  1  0  0  0
 24 25  1  0  0  0
 24 44  1  0  0  0
 25 26  1  0  0  0
 25 27  2  0  0  0
 26 29  1  0  0  0
 26 28  1  0  0  0
 29 30  1  0  0  0
 29 41  1  0  0  0
 30 31  1  0  0  0
 30 33  2  0  0  0
 31 32  1  0  0  0
 31 35  1  0  0  0
 32 37  1  0  0  0
 32 34  1  0  0  0
 37 38  2  0  0  0
 37 39  1  0  0  0
 52 53  1  0  0  0
 53 54  1  0  0  0
 54 55  1  0  0  0
 54 56  2  0  0  0
 55 57  1  0  0  0
 55 58  1  0  0  0
 44 45  1  0  0  0
 45 46  1  0  0  0
 45 47  2  0  0  0
 46 49  1  0  0  0
 46 50  1  0  0  0
 47 48  1  0  0  0
 48 49  2  0  0  0
 48 51  1  0  0  0
 41 42  1  0  0  0
 42 43  1  0  0  0
 39 40  1  0  0  0
 34 36  1  0  0  0
 35 36  1  0  0  0
M  CHG 1  48   1
M  CHG 1  63   1
M  CHG 1  97   1
M  CHG 1 127   1
M  END
> <minimizedAffinity>
-8.58328

$$$$



130133  0  0  0  0  0  0  0  0999 V2000
   14.5029  -19.5733   -3.5062 C   0  0  0  0  0  0  0  0  0  0  0  0
   11.2535  -22.7305   -5.6213 C   0  0  0  0  0  0  0  0  0  0  0  0
   12.8014  -25.9196   -9.1491 C   0  0  0  0  0  0  0  0  0  0  0  0
    9.5521  -29.0769  -11.2642 C   0  0  0  0  0  0  0  0  0  0  0  0
    4.7549  -29.0448   -9.8514 C   0  0  0  0  0  0  0  0  0  0  0  0
    3.2087  -25.8569   -6.3253 C   0  0  0  0  0  0  0  0  0  0  0  0
    6.4580  -22.6997   -4.2102 C   0  0  0  0  0  0  0  0  0  0  0  0
    1.5053  -32.2023  -11.9667 O   0  0  0  0  0  0  0  0  0  0  0  0
    1.7952  -32.7999  -12.6276 H   0  0  0  0  0  0  0  0  0  0  0  0
   16.1612  -16.7176   -7.2576 C   0  0  0  0  0  0  0  0  0  0  0  0
   15.6386  -14.9335  -11.8996 N   0  0  0  0  0  0  0  0  0  0  0  0
   20.3756  -14.6447   -5.5415 O   0  0  0  0  0  0  0  0  0  0  0  0
   14.8088  -15.3416  -12.2375 H   0  0  0  0  0  0  0  0  0  0  0  0
   17.2972  -12.0764  -15.6534 C   0  0  0  0  0  0  0  0  0  0  0  0
   19.9593   -8.1636  -17.2679 C   0  0  0  0  0  0  0  0  0  0  0  0
   21.2270   -3.3405  -16.9014 N   0  0  0  0  0  0  0  0  0  0  0  0
   17.2655   -6.4051  -13.4404 O   0  0  0  0  0  0  0  0  0  0  0  0
   20.6966   -2.9942  -16.1477 H   0  0  0  0  0  0  0  0  0  0  0  0
   23.8891    0.5724  -18.5159 C   0  0  0  0  0  0  0  0  0  0  0  0
   28.2819    2.5934  -19.7796 C   0  0  0  0  0  0  0  0  0  0  0  0
   32.7132    4.4967  -18.4583 N   0  0  0  0  0  0  0  0  0  0  0  0
   28.2124    2.8230  -24.7742 O   0  0  0  0  0  0  0  0  0  0  0  0
   32.7268    4.4515  -17.4750 H   0  0  0  0  0  0  0  0  0  0  0  0
   37.1084    6.5188  -19.7220 C   0  0  0  0  0  0  0  0  0  0  0  0
   42.0446    6.9272  -19.0361 C   0  0  0  0  0  0  0  0  0  0  0  0
   45.9276    8.1237  -16.1214 N   0  0  0  0  0  0  0  0  0  0  0  0
   40.0097    8.4497  -14.7303 O   0  0  0  0  0  0  0  0  0  0  0  0
   45.5269    8.4235  -15.2736 H   0  0  0  0  0  0  0  0  0  0  0  0
   50.8638    8.5321  -15.4355 C   0  0  0  0  0  0  0  0  0  0  0  0
   55.1877    6.5938  -13.8461 C   0  0  0  0  0  0  0  0  0  0  0  0
   57.7027    3.5718  -10.7565 N   0  0  0  0  0  0  0  0  0  0  0  0
   62.0285    1.6322   -9.1659 C   0  0  0  0  0  0  0  0  0  0  0  0
   58.6863    8.6853  -16.7425 O   0  0  0  0  0  0  0  0  0  0  0  0
   60.7700   -1.4636   -5.4459 C   0  0  0  0  0  0  0  0  0  0  0  0
   54.2044    1.4804   -7.8604 C   0  0  0  0  0  0  0  0  0  0  0  0
   55.9691   -1.9902   -4.1496 C   0  0  0  0  0  0  0  0  0  0  0  0
   64.5435   -1.3898   -6.0762 C   0  0  0  0  0  0  0  0  0  0  0  0
   67.8683    2.0624   -7.5000 O   0  0  0  0  0  0  0  0  0  0  0  0
   66.5002   -4.7472   -2.9283 O   0  0  0  0  0  0  0  0  0  0  0  0
   65.9680   -5.4426   -2.5948 H   0  0  0  0  0  0  0  0  0  0  0  0
   54.2800   12.0632  -16.3595 C   0  0  0  0  0  0  0  0  0  0  0  0
   58.9247   11.5786  -14.5749 S   0  0  0  0  0  0  0  0  0  0  0  0
   59.2594   10.4859  -13.8378 H   0  0  0  0  0  0  0  0  0  0  0  0
   40.4298    4.4481  -16.6095 C   0  0  0  0  0  0  0  0  0  0  0  0
   43.2149    0.5860  -18.1369 C   0  0  0  0  0  0  0  0  0  0  0  0
   45.1712    5.1856  -18.0122 N   0  0  0  0  0  0  0  0  0  0  0  0
   47.5611   -1.2166  -19.8286 C   0  0  0  0  0  0  0  0  0  0  0  0
   49.5173    3.3830  -19.7039 N   0  0  0  0  0  0  0  0  0  0  0  0
   49.0388    8.2690  -18.7499 C   0  0  0  0  0  0  0  0  0  0  0  0
   44.4442    5.7627  -17.6841 H   0  0  0  0  0  0  0  0  0  0  0  0
   50.4437    3.2745  -20.0193 H   0  0  0  0  0  0  0  0  0  0  0  0
   19.1628    2.1982  -18.3562 C   0  0  0  0  0  0  0  0  0  0  0  0
   18.0986    6.5759  -16.1860 C   0  0  0  0  0  0  0  0  0  0  0  0
   14.9968    6.7329  -12.2666 C   0  0  0  0  0  0  0  0  0  0  0  0
   16.6494    8.3600   -7.8362 N   0  0  0  0  0  0  0  0  0  0  0  0
   10.2452    5.2637  -12.7774 O   0  0  0  0  0  0  0  0  0  0  0  0
   16.0390    8.3910   -7.0643 H   0  0  0  0  0  0  0  0  0  0  0  0
   17.5851    8.6492   -7.7358 H   0  0  0  0  0  0  0  0  0  0  0  0
   20.0949   -8.5569  -13.4642 C   0  0  0  0  0  0  0  0  0  0  0  0
   24.0601   -6.6706  -15.8568 C   0  0  0  0  0  0  0  0  0  0  0  0
   24.9869   -1.7601  -15.6715 C   0  0  0  0  0  0  0  0  0  0  0  0
   25.0958    0.5970  -11.2630 C   0  0  0  0  0  0  0  0  0  0  0  0
   22.2175    4.6157  -10.5068 N   0  0  0  0  0  0  0  0  0  0  0  0
   22.2394    5.0968   -9.6077 H   0  0  0  0  0  0  0  0  0  0  0  0
   21.6085    4.9543  -11.2517 H   0  0  0  0  0  0  0  0  0  0  0  0
   21.6304    5.4354  -10.3526 H   0  0  0  0  0  0  0  0  0  0  0  0
   17.0124  -21.4571    5.6300 C   0  0  0  0  0  0  0  0  0  0  0  0
   14.5260  -20.7960    1.3424 N   0  0  0  0  0  0  0  0  0  0  0  0
   12.2534  -22.5420    6.7135 O   0  0  0  0  0  0  0  0  0  0  0  0
   13.5890  -21.0096    1.5557 H   0  0  0  0  0  0  0  0  0  0  0  0
   17.0355  -22.6798   10.4786 C   0  0  0  0  0  0  0  0  0  0  0  0
   19.5528  -18.2628   18.6927 C   0  0  0  0  0  0  0  0  0  0  0  0
   18.2404  -21.6030   15.2108 N   0  0  0  0  0  0  0  0  0  0  0  0
   19.7605  -13.8895   16.2773 O   0  0  0  0  0  0  0  0  0  0  0  0
   18.1995  -22.4641   15.6863 H   0  0  0  0  0  0  0  0  0  0  0  0
   20.7570  -17.1872   23.4225 C   0  0  0  0  0  0  0  0  0  0  0  0
   24.3546   -9.4956   28.0286 C   0  0  0  0  0  0  0  0  0  0  0  0
   22.7523  -14.0649   26.7802 N   0  0  0  0  0  0  0  0  0  0  0  0
   25.1138  -12.2911   32.1038 O   0  0  0  0  0  0  0  0  0  0  0  0
   22.9018  -14.6154   27.5827 H   0  0  0  0  0  0  0  0  0  0  0  0
   26.3499   -6.3733   31.3863 C   0  0  0  0  0  0  0  0  0  0  0  0
   29.6814   -6.5705   27.6630 C   0  0  0  0  0  0  0  0  0  0  0  0
   34.2657   -0.8488   31.7564 C   0  0  0  0  0  0  0  0  0  0  0  0
   30.0695   -3.3531   32.8168 N   0  0  0  0  0  0  0  0  0  0  0  0
   35.1864   -1.8455   26.9437 O   0  0  0  0  0  0  0  0  0  0  0  0
   29.8883   -3.1569   33.7644 H   0  0  0  0  0  0  0  0  0  0  0  0
   37.9832    2.1699   33.1868 C   0  0  0  0  0  0  0  0  0  0  0  0
   47.6142    1.9915   32.4574 C   0  0  0  0  0  0  0  0  0  0  0  0
   42.8579    3.2771   33.3116 N   0  0  0  0  0  0  0  0  0  0  0  0
   47.8430    6.6143   34.3487 O   0  0  0  0  0  0  0  0  0  0  0  0
   42.9030    4.1874   33.6840 H   0  0  0  0  0  0  0  0  0  0  0  0
   52.4888    3.0987   32.5822 C   0  0  0  0  0  0  0  0  0  0  0  0
   61.1329    4.5979   28.5385 C   0  0  0  0  0  0  0  0  0  0  0  0
   57.0941    2.5935   30.7007 N   0  0  0  0  0  0  0  0  0  0  0  0
   60.0382    9.4466   27.9961 O   0  0  0  0  0  0  0  0  0  0  0  0
   57.3096    1.6388   30.8075 H   0  0  0  0  0  0  0  0  0  0  0  0
   70.1172    4.8022   24.3565 N   0  0  0  0  0  0  0  0  0  0  0  0
   65.7358    4.0922   26.6581 C   0  0  0  0  0  0  0  0  0  0  0  0
   70.3098    5.6877   23.8884 H   0  0  0  0  0  0  0  0  0  0  0  0
   70.8184    4.0615   24.3550 H   0  0  0  0  0  0  0  0  0  0  0  0
   71.0110    4.9470   23.8870 H   0  0  0  0  0  0  0  0  0  0  0  0
   67.1753   -0.5103   27.9788 C   0  0  0  0  0  0  0  0  0  0  0  0
   68.6149   -5.1128   29.2995 C   0  0  0  0  0  0  0  0  0  0  0  0
   67.8071   -1.6948   23.1625 O   0  0  0  0  0  0  0  0  0  0  0  0
   67.6265   -1.0364   22.4735 H   0  0  0  0  0  0  0  0  0  0  0  0
   51.9683   -0.0165   28.7061 C   0  0  0  0  0  0  0  0  0  0  0  0
   49.1253   -2.0229   25.1148 C   0  0  0  0  0  0  0  0  0  0  0  0
   49.8284   -6.7780   23.7358 C   0  0  0  0  0  0  0  0  0  0  0  0
   53.7805   -8.0072   20.9294 N   0  0  0  0  0  0  0  0  0  0  0  0
   46.5811  -10.3018   25.1624 O   0  0  0  0  0  0  0  0  0  0  0  0
   53.9192   -8.9433   20.6578 H   0  0  0  0  0  0  0  0  0  0  0  0
   54.4198   -7.3132   20.6486 H   0  0  0  0  0  0  0  0  0  0  0  0
   35.7521    5.8652   35.7101 C   0  0  0  0  0  0  0  0  0  0  0  0
   35.6696    9.0354   39.5748 C   0  0  0  0  0  0  0  0  0  0  0  0
   38.2624   13.3047   39.3643 C   0  0  0  0  0  0  0  0  0  0  0  0
   35.9661   17.6692   40.1834 N   0  0  0  0  0  0  0  0  0  0  0  0
   43.1540   13.2093   38.3343 O   0  0  0  0  0  0  0  0  0  0  0  0
   36.4771   18.5097   40.1418 H   0  0  0  0  0  0  0  0  0  0  0  0
   35.0029   17.6882   40.3862 H   0  0  0  0  0  0  0  0  0  0  0  0
   20.2634  -19.5226   27.8168 C   0  0  0  0  0  0  0  0  0  0  0  0
   16.4323  -18.3978   30.8274 O   0  0  0  0  0  0  0  0  0  0  0  0
   16.3362  -18.8506   31.6799 H   0  0  0  0  0  0  0  0  0  0  0  0
   19.3187  -18.2372   10.2536 C   0  0  0  0  0  0  0  0  0  0  0  0
   22.7554  -15.2333    8.2144 C   0  0  0  0  0  0  0  0  0  0  0  0
   23.2273  -20.1956    7.8261 N   0  0  0  0  0  0  0  0  0  0  0  0
   26.9960  -14.6282    5.6357 C   0  0  0  0  0  0  0  0  0  0  0  0
   27.4679  -19.5905    5.2473 N   0  0  0  0  0  0  0  0  0  0  0  0
   25.7561  -24.1894    6.2005 C   0  0  0  0  0  0  0  0  0  0  0  0
   22.4449  -20.5637    8.2967 H   0  0  0  0  0  0  0  0  0  0  0  0
   28.2985  -19.7284    4.7371 H   0  0  0  0  0  0  0  0  0  0  0  0
 97 98  1  0  0  0
 97 99  1  0  0  0
 97100  1  0  0  0
 97101  1  0  0  0
 98102  1  0  0  0
 98 93  1  0  0  0
102103  1  0  0  0
102104  1  0  0  0
104105  1  0  0  0
 93 94  1  0  0  0
 93 95  2  0  0  0
 94 92  1  0  0  0
 94 96  1  0  0  0
 92 88  1  0  0  0
 92106  1  0  0  0
 88 89  1  0  0  0
 88 90  2  0  0  0
 89 87  1  0  0  0
 89 91  1  0  0  0
 87 83  1  0  0  0
 87113  1  0  0  0
 83 84  1  0  0  0
 83 85  2  0  0  0
 84 81  1  0  0  0
 84 86  1  0  0  0
 81 77  1  0  0  0
 81 82  1  0  0  0
 77 78  1  0  0  0
 77 79  2  0  0  0
 78 76  1  0  0  0
 78 80  1  0  0  0
 76 72  1  0  0  0
 76120  1  0  0  0
 72 73  1  0  0  0
 72 74  2  0  0  0
 73 71  1  0  0  0
 73 75  1  0  0  0
 71 67  1  0  0  0
 71123  1  0  0  0
106107  1  0  0  0
107108  1  0  0  0
108109  1  0  0  0
108110  2  0  0  0
109111  1  0  0  0
109112  1  0  0  0
113114  1  0  0  0
114115  1  0  0  0
115116  1  0  0  0
115117  2  0  0  0
116118  1  0  0  0
116119  1  0  0  0
120121  1  0  0  0
121122  1  0  0  0
 67 68  1  0  0  0
 67 69  2  0  0  0
 68  1  1  0  0  0
 68 70  1  0  0  0
  1 10  1  0  0  0
  1  2  1  0  0  0
 10 11  1  0  0  0
 10 12  2  0  0  0
 11 14  1  0  0  0
 11 13  1  0  0  0
 14 15  1  0  0  0
 14 59  1  0  0  0
 15 16  1  0  0  0
 15 17  2  0  0  0
 16 19  1  0  0  0
 16 18  1  0  0  0
 19 20  1  0  0  0
 19 52  1  0  0  0
123124  1  0  0  0
124125  1  0  0  0
124126  2  0  0  0
125128  1  0  0  0
125129  1  0  0  0
126127  1  0  0  0
127128  2  0  0  0
127130  1  0  0  0
  2  3  2  0  0  0
  3  4  1  0  0  0
  4  5  2  0  0  0
  5  6  1  0  0  0
  5  8  1  0  0  0
  6  7  2  0  0  0
  7  2  1  0  0  0
  8  9  1  0  0  0
 59 60  1  0  0  0
 60 61  1  0  0  0
 61 62  1  0  0  0
 62 63  1  0  0  0
 63 64  1  0  0  0
 63 65  1  0  0  0
 63 66  1  0  0  0
 20 21  1  0  0  0
 20 22  2  0  0  0
 21 24  1  0  0  0
 21 23  1  0  0  0
 24 25  1  0  0  0
 24 44  1  0  0  0
 25 26  1  0  0  0
 25 27  2  0  0  0
 26 29  1  0  0  0
 26 28  1  0  0  0
 29 30  1  0  0  0
 29 41  1  0  0  0
 30 31  1  0  0  0
 30 33  2  0  0  0
 31 32  1  0  0  0
 31 35  1  0  0  0
 32 37  1  0  0  0
 32 34  1  0  0  0
 37 38  2  0  0  0
 37 39  1  0  0  0
 52 53  1  0  0  0
 53 54  1  0  0  0
 54 55  1  0  0  0
 54 56  2  0  0  0
 55 57  1  0  0  0
 55 58  1  0  0  0
 44 45  1  0  0  0
 45 46  1  0  0  0
 45 47  2  0  0  0
 46 49  1  0  0  0
 46 50  1  0  0  0
 47 48  1  0  0  0
 48 49  2  0  0  0
 48 51  1  0  0  0
 41 42  1  0  0  0
 42 43  1  0  0  0
 39 40  1  0  0  0
 34 36  1  0  0  0
 35 36  1  0  0  0
M  CHG 1  48   1
M  CHG 1  63   1
M  CHG 1  97   1
M  CHG 1 127   1
M  END
> <minimizedAffinity>
-8.56556

$$$$
