


126129  0  0  0  0  0  0  0  0999 V2000
   36.0160   -6.6810   13.8658 C   0  0  0  0  0  0  0  0  0  0  0  0
   35.6404   -7.7640   14.8504 C   0  0  0  0  0  0  0  0  0  0  0  0
   35.8668   -7.5990   16.2288 C   0  0  0  0  0  0  0  0  0  0  0  0
   35.4702   -8.5868   17.1334 C   0  0  0  0  0  0  0  0  0  0  0  0
   34.8608   -9.7610   16.6736 C   0  0  0  0  0  0  0  0  0  0  0  0
   34.4659  -10.7398   17.5847 O   0  0  0  0  0  0  0  0  0  0  0  0
   34.6466   -9.9405   15.3018 C   0  0  0  0  0  0  0  0  0  0  0  0
   35.0262   -8.9427   14.3980 C   0  0  0  0  0  0  0  0  0  0  0  0
   34.0640  -11.6161   17.2724 H   0  0  0  0  0  0  0  0  0  0  0  0
   37.0668   -5.7722   14.4480 C   0  0  0  0  0  0  0  0  0  0  0  0
   38.2739   -6.1291   14.4807 O   0  0  0  0  0  0  0  0  0  0  0  0
   36.6849   -4.5088   15.0090 N   0  0  0  0  0  0  0  0  0  0  0  0
   35.9813   -3.9497   14.4734 H   0  0  0  0  0  0  0  0  0  0  0  0
   36.8983   -4.1244   16.4140 C   0  0  0  0  0  0  0  0  0  0  0  0
   35.7977   -3.1821   16.8407 C   0  0  0  0  0  0  0  0  0  0  0  0
   35.2055   -3.3460   17.9457 O   0  0  0  0  0  0  0  0  0  0  0  0
   35.4175   -2.1028   15.9758 N   0  0  0  0  0  0  0  0  0  0  0  0
   36.0543   -1.8630   15.1818 H   0  0  0  0  0  0  0  0  0  0  0  0
   34.0390   -1.6022   15.9267 C   0  0  0  0  0  0  0  0  0  0  0  0
   33.9413   -0.2972   16.6796 C   0  0  0  0  0  0  0  0  0  0  0  0
   34.7273    0.6441   16.3922 O   0  0  0  0  0  0  0  0  0  0  0  0
   32.9163   -0.1043   17.6717 N   0  0  0  0  0  0  0  0  0  0  0  0
   32.2402   -0.8907   17.8208 H   0  0  0  0  0  0  0  0  0  0  0  0
   32.6244    1.2215   18.2420 C   0  0  0  0  0  0  0  0  0  0  0  0
   32.5428    1.1806   19.7547 C   0  0  0  0  0  0  0  0  0  0  0  0
   31.6345    0.5015   20.3065 O   0  0  0  0  0  0  0  0  0  0  0  0
   33.3810    2.0057   20.5863 N   0  0  0  0  0  0  0  0  0  0  0  0
   32.9178    2.4322   21.4238 H   0  0  0  0  0  0  0  0  0  0  0  0
   34.8551    2.0365   20.5725 C   0  0  0  0  0  0  0  0  0  0  0  0
   35.4411    0.6426   20.5923 C   0  0  0  0  0  0  0  0  0  0  0  0
   35.7687    0.0840   19.5162 O   0  0  0  0  0  0  0  0  0  0  0  0
   35.5144   -0.1144   21.8082 N   0  0  0  0  0  0  0  0  0  0  0  0
   36.6987   -0.1414   22.6487 C   0  0  0  0  0  0  0  0  0  0  0  0
   36.5399   -1.3628   23.5422 C   0  0  0  0  0  0  0  0  0  0  0  0
   35.0556   -1.7186   23.4901 C   0  0  0  0  0  0  0  0  0  0  0  0
   34.5359   -1.1290   22.1777 C   0  0  0  0  0  0  0  0  0  0  0  0
   34.4247   -2.1863   21.1137 C   0  0  0  0  0  0  0  0  0  0  0  0
   33.5578   -1.9984   20.0467 O   0  0  0  0  0  0  0  0  0  0  0  0
   35.0911   -3.2521   21.2055 O   0  0  0  0  0  0  0  0  0  0  0  0
   33.4572   -2.7045   19.3277 H   0  0  0  0  0  0  0  0  0  0  0  0
   35.3837    2.8961   19.4062 C   0  0  0  0  0  0  0  0  0  0  0  0
   36.8102    3.9209   19.9013 S   0  0  0  0  0  0  0  0  0  0  0  0
   37.6125    2.8436   20.3050 H   0  0  0  0  0  0  0  0  0  0  0  0
   31.3178    1.7749   17.6334 C   0  0  0  0  0  0  0  0  0  0  0  0
   31.5396    2.4609   16.3099 C   0  0  0  0  0  0  0  0  0  0  0  0
   30.6243    2.5900   15.2903 C   0  0  0  0  0  0  0  0  0  0  0  0
   31.2018    3.2309   14.2558 N   0  0  0  0  0  0  0  0  0  0  0  0
   32.4650    3.4662   14.6709 C   0  0  0  0  0  0  0  0  0  0  0  0
   32.7013    3.0110   15.9147 N   0  0  0  0  0  0  0  0  0  0  0  0
   33.6055    3.0373   16.4365 H   0  0  0  0  0  0  0  0  0  0  0  0
   33.6020   -1.3967   14.4607 C   0  0  0  0  0  0  0  0  0  0  0  0
   32.3437   -0.5201   14.3409 C   0  0  0  0  0  0  0  0  0  0  0  0
   31.9838   -0.2786   12.9009 C   0  0  0  0  0  0  0  0  0  0  0  0
   32.8804    0.0403   12.0751 O   0  0  0  0  0  0  0  0  0  0  0  0
   30.6288   -0.3989   12.4632 N   0  0  0  0  0  0  0  0  0  0  0  0
   30.3871   -0.2741   11.4548 H   0  0  0  0  0  0  0  0  0  0  0  0
   29.8592   -0.6008   13.1383 H   0  0  0  0  0  0  0  0  0  0  0  0
   38.3118   -3.5496   16.6862 C   0  0  0  0  0  0  0  0  0  0  0  0
   39.0335   -4.2786   17.8326 C   0  0  0  0  0  0  0  0  0  0  0  0
   38.3955   -5.6365   18.1774 C   0  0  0  0  0  0  0  0  0  0  0  0
   39.3553   -6.8428   18.1080 C   0  0  0  0  0  0  0  0  0  0  0  0
   39.4692   -7.3948   16.7558 N   0  0  0  0  0  0  0  0  0  0  0  0
   40.0005   -6.7182   16.1576 H   0  0  0  0  0  0  0  0  0  0  0  0
   38.5175   -7.5033   16.3489 H   0  0  0  0  0  0  0  0  0  0  0  0
   36.8029   -6.4340   11.4936 C   0  0  0  0  0  0  0  0  0  0  0  0
   36.0134   -5.5191   11.1374 O   0  0  0  0  0  0  0  0  0  0  0  0
   36.4711   -7.2721   12.6035 N   0  0  0  0  0  0  0  0  0  0  0  0
   36.7229   -8.2873   12.5624 H   0  0  0  0  0  0  0  0  0  0  0  0
   38.1796   -6.5124   10.9015 C   0  0  0  0  0  0  0  0  0  0  0  0
   39.0973   -4.9839    9.0805 C   0  0  0  0  0  0  0  0  0  0  0  0
   38.7115   -4.0561    8.3113 O   0  0  0  0  0  0  0  0  0  0  0  0
   38.1297   -5.9356    9.5554 N   0  0  0  0  0  0  0  0  0  0  0  0
   37.2160   -5.9546    9.0532 H   0  0  0  0  0  0  0  0  0  0  0  0
   40.5683   -5.1385    9.4041 C   0  0  0  0  0  0  0  0  0  0  0  0
   42.2304   -4.5839   11.2341 C   0  0  0  0  0  0  0  0  0  0  0  0
   42.8179   -5.6905   11.0820 O   0  0  0  0  0  0  0  0  0  0  0  0
   40.9721   -4.3529   10.5794 N   0  0  0  0  0  0  0  0  0  0  0  0
   40.3726   -3.5780   10.9365 H   0  0  0  0  0  0  0  0  0  0  0  0
   42.8436   -3.4916   12.0779 C   0  0  0  0  0  0  0  0  0  0  0  0
   44.1779   -3.9754   12.6446 C   0  0  0  0  0  0  0  0  0  0  0  0
   41.4682   -1.7160   13.2949 C   0  0  0  0  0  0  0  0  0  0  0  0
   41.9211   -0.8068   12.5478 O   0  0  0  0  0  0  0  0  0  0  0  0
   41.9529   -3.0643   13.1708 N   0  0  0  0  0  0  0  0  0  0  0  0
   41.6079   -3.7521   13.8735 H   0  0  0  0  0  0  0  0  0  0  0  0
   40.4150   -1.3769   14.3208 C   0  0  0  0  0  0  0  0  0  0  0  0
   38.7677   -2.2703   12.6107 C   0  0  0  0  0  0  0  0  0  0  0  0
   38.7000   -3.4613   12.1969 O   0  0  0  0  0  0  0  0  0  0  0  0
   39.1515   -2.0337   13.9703 N   0  0  0  0  0  0  0  0  0  0  0  0
   38.7536   -2.6914   14.6710 H   0  0  0  0  0  0  0  0  0  0  0  0
   38.2846   -1.1586   11.6941 C   0  0  0  0  0  0  0  0  0  0  0  0
   39.4880   -0.5855    9.5632 C   0  0  0  0  0  0  0  0  0  0  0  0
   38.4996   -0.2629    8.8479 O   0  0  0  0  0  0  0  0  0  0  0  0
   39.3849   -0.4980   10.9883 N   0  0  0  0  0  0  0  0  0  0  0  0
   40.0830    0.0792   11.5039 H   0  0  0  0  0  0  0  0  0  0  0  0
   40.4658   -1.5419    7.5362 N   0  0  0  0  0  0  0  0  0  0  0  0
   40.7397   -1.1501    8.9253 C   0  0  0  0  0  0  0  0  0  0  0  0
   41.3054   -2.0452    7.1646 H   0  0  0  0  0  0  0  0  0  0  0  0
   39.6916   -2.2437    7.5354 H   0  0  0  0  0  0  0  0  0  0  0  0
   41.9218   -0.1590    9.0097 C   0  0  0  0  0  0  0  0  0  0  0  0
   41.6148    0.8330    9.9619 O   0  0  0  0  0  0  0  0  0  0  0  0
   43.2397   -0.8443    9.3975 C   0  0  0  0  0  0  0  0  0  0  0  0
   42.2515    1.5784    9.8157 H   0  0  0  0  0  0  0  0  0  0  0  0
   37.4254   -0.1336   12.4546 C   0  0  0  0  0  0  0  0  0  0  0  0
   36.4993    0.6999   11.5510 C   0  0  0  0  0  0  0  0  0  0  0  0
   35.8976    1.8758   12.2785 C   0  0  0  0  0  0  0  0  0  0  0  0
   36.0303    3.0496   11.8439 O   0  0  0  0  0  0  0  0  0  0  0  0
   35.1500    1.6569   13.4733 N   0  0  0  0  0  0  0  0  0  0  0  0
   34.7133    2.4590   13.9752 H   0  0  0  0  0  0  0  0  0  0  0  0
   34.9897    0.6868   13.8322 H   0  0  0  0  0  0  0  0  0  0  0  0
   40.2052    0.1454   14.5795 C   0  0  0  0  0  0  0  0  0  0  0  0
   39.8199    0.5866   16.0071 C   0  0  0  0  0  0  0  0  0  0  0  0
   38.3638    0.4493   16.3890 C   0  0  0  0  0  0  0  0  0  0  0  0
   37.6235   -0.2650   15.6673 O   0  0  0  0  0  0  0  0  0  0  0  0
   37.7814    1.1302   17.5054 N   0  0  0  0  0  0  0  0  0  0  0  0
   38.2818    1.8727   18.0359 H   0  0  0  0  0  0  0  0  0  0  0  0
   36.7732    0.9713   17.7410 H   0  0  0  0  0  0  0  0  0  0  0  0
   41.4050   -4.7401    8.1705 C   0  0  0  0  0  0  0  0  0  0  0  0
   42.4840   -5.6229    7.9899 O   0  0  0  0  0  0  0  0  0  0  0  0
   42.1409   -6.3787    7.4397 H   0  0  0  0  0  0  0  0  0  0  0  0
   38.7067   -7.9586   10.8607 C   0  0  0  0  0  0  0  0  0  0  0  0
   39.9035   -8.1098   11.7565 C   0  0  0  0  0  0  0  0  0  0  0  0
   40.7436   -9.2065   11.8144 C   0  0  0  0  0  0  0  0  0  0  0  0
   41.6642   -9.0049   12.7798 N   0  0  0  0  0  0  0  0  0  0  0  0
   41.3601   -7.7865   13.2842 C   0  0  0  0  0  0  0  0  0  0  0  0
   40.3001   -7.2162   12.6748 N   0  0  0  0  0  0  0  0  0  0  0  0
   39.8668   -6.2957   12.9036 H   0  0  0  0  0  0  0  0  0  0  0  0
 95 96  1  0  0  0
 96 91  1  0  0  0
 91 92  2  0  0  0
 91 93  1  0  0  0
 93 90  1  0  0  0
 90103  1  0  0  0
103104  1  0  0  0
104105  1  0  0  0
105106  2  0  0  0
105107  1  0  0  0
 90 86  1  0  0  0
 86 87  2  0  0  0
 86 88  1  0  0  0
 88 85  1  0  0  0
 85110  1  0  0  0
110111  1  0  0  0
111112  1  0  0  0
112113  2  0  0  0
112114  1  0  0  0
 85 81  1  0  0  0
 81 82  2  0  0  0
 81 83  1  0  0  0
 83 79  1  0  0  0
 79 80  1  0  0  0
 79 75  1  0  0  0
 75 76  2  0  0  0
 75 77  1  0  0  0
 77 74  1  0  0  0
 74117  1  0  0  0
117118  1  0  0  0
 74 70  1  0  0  0
 70 71  2  0  0  0
 70 72  1  0  0  0
 72 69  1  0  0  0
 69120  1  0  0  0
120121  1  0  0  0
121122  2  0  0  0
122123  1  0  0  0
123124  2  0  0  0
124125  1  0  0  0
 69 65  1  0  0  0
 65 66  2  0  0  0
 65 67  1  0  0  0
 67  1  1  0  0  0
  1  2  1  0  0  0
  2  3  2  0  0  0
  3  4  1  0  0  0
  4  5  2  0  0  0
  5  6  1  0  0  0
  5  7  1  0  0  0
  7  8  2  0  0  0
  1 10  1  0  0  0
 10 11  2  0  0  0
 10 12  1  0  0  0
 12 14  1  0  0  0
 14 58  1  0  0  0
 58 59  1  0  0  0
 59 60  1  0  0  0
 60 61  1  0  0  0
 61 62  1  0  0  0
 14 15  1  0  0  0
 15 16  2  0  0  0
 15 17  1  0  0  0
 17 19  1  0  0  0
 19 51  1  0  0  0
 51 52  1  0  0  0
 52 53  1  0  0  0
 53 54  2  0  0  0
 53 55  1  0  0  0
 19 20  1  0  0  0
 20 21  2  0  0  0
 20 22  1  0  0  0
 22 24  1  0  0  0
 24 44  1  0  0  0
 44 45  1  0  0  0
 45 46  2  0  0  0
 46 47  1  0  0  0
 47 48  2  0  0  0
 48 49  1  0  0  0
 24 25  1  0  0  0
 25 26  2  0  0  0
 25 27  1  0  0  0
 27 29  1  0  0  0
 29 41  1  0  0  0
 41 42  1  0  0  0
 29 30  1  0  0  0
 30 31  2  0  0  0
 30 32  1  0  0  0
 32 33  1  0  0  0
 33 34  1  0  0  0
 34 35  1  0  0  0
 35 36  1  0  0  0
 36 37  1  0  0  0
 37 38  1  0  0  0
 37 39  2  0  0  0
 96 99  1  0  0  0
 99100  1  0  0  0
 99101  1  0  0  0
125121  1  0  0  0
  8  2  1  0  0  0
 49 45  1  0  0  0
 36 32  1  0  0  0
 95 97  1  0  0  0
 95 98  1  0  0  0
 93 94  1  0  0  0
107108  1  0  0  0
107109  1  0  0  0
 88 89  1  0  0  0
114115  1  0  0  0
114116  1  0  0  0
 83 84  1  0  0  0
 77 78  1  0  0  0
118119  1  0  0  0
 72 73  1  0  0  0
125126  1  0  0  0
 67 68  1  0  0  0
  6  9  1  0  0  0
 12 13  1  0  0  0
 62 63  1  0  0  0
 62 64  1  0  0  0
 17 18  1  0  0  0
 55 56  1  0  0  0
 55 57  1  0  0  0
 22 23  1  0  0  0
 49 50  1  0  0  0
 27 28  1  0  0  0
 42 43  1  0  0  0
 38 40  1  0  0  0
100102  1  0  0  0
M  END
> <minimizedAffinity>
-4.63944

$$$$



126129  0  0  0  0  0  0  0  0999 V2000
   29.6319    3.5301   16.9381 C   0  0  0  0  0  0  0  0  0  0  0  0
   28.8919    4.1516   18.0999 C   0  0  0  0  0  0  0  0  0  0  0  0
   27.5737    4.6192   17.9514 C   0  0  0  0  0  0  0  0  0  0  0  0
   26.8835    5.1466   19.0454 C   0  0  0  0  0  0  0  0  0  0  0  0
   27.5056    5.2331   20.2972 C   0  0  0  0  0  0  0  0  0  0  0  0
   26.8073    5.7585   21.3837 O   0  0  0  0  0  0  0  0  0  0  0  0
   28.8231    4.7850   20.4499 C   0  0  0  0  0  0  0  0  0  0  0  0
   29.5073    4.2391   19.3588 C   0  0  0  0  0  0  0  0  0  0  0  0
   27.2510    5.8722   22.2876 H   0  0  0  0  0  0  0  0  0  0  0  0
   30.6931    4.4654   16.4203 C   0  0  0  0  0  0  0  0  0  0  0  0
   31.8453    4.4690   16.9281 O   0  0  0  0  0  0  0  0  0  0  0  0
   30.3776    5.3896   15.3700 N   0  0  0  0  0  0  0  0  0  0  0  0
   29.8029    5.0221   14.5769 H   0  0  0  0  0  0  0  0  0  0  0  0
   30.4610    6.8539   15.4982 C   0  0  0  0  0  0  0  0  0  0  0  0
   31.5954    7.3608   14.6393 C   0  0  0  0  0  0  0  0  0  0  0  0
   32.3543    8.2817   15.0571 O   0  0  0  0  0  0  0  0  0  0  0  0
   31.8000    6.7982   13.3358 N   0  0  0  0  0  0  0  0  0  0  0  0
   31.3045    5.9073   13.1029 H   0  0  0  0  0  0  0  0  0  0  0  0
   32.3401    7.5943   12.2278 C   0  0  0  0  0  0  0  0  0  0  0  0
   33.0585    6.6930   11.2526 C   0  0  0  0  0  0  0  0  0  0  0  0
   34.2657    6.9193   10.9737 O   0  0  0  0  0  0  0  0  0  0  0  0
   32.3919    5.5451   10.6957 N   0  0  0  0  0  0  0  0  0  0  0  0
   31.4124    5.3575   11.0170 H   0  0  0  0  0  0  0  0  0  0  0  0
   33.1221    4.5066    9.9497 C   0  0  0  0  0  0  0  0  0  0  0  0
   32.2421    3.8252    8.9212 C   0  0  0  0  0  0  0  0  0  0  0  0
   31.5063    2.8646    9.2765 O   0  0  0  0  0  0  0  0  0  0  0  0
   32.3214    4.1438    7.5185 N   0  0  0  0  0  0  0  0  0  0  0  0
   32.2575    3.3316    6.8598 H   0  0  0  0  0  0  0  0  0  0  0  0
   32.1461    5.4805    6.9215 C   0  0  0  0  0  0  0  0  0  0  0  0
   30.9132    6.1725    7.4578 C   0  0  0  0  0  0  0  0  0  0  0  0
   31.0285    7.0969    8.3002 O   0  0  0  0  0  0  0  0  0  0  0  0
   29.5977    5.7101    7.1226 N   0  0  0  0  0  0  0  0  0  0  0  0
   28.8242    6.2642    6.0251 C   0  0  0  0  0  0  0  0  0  0  0  0
   27.3843    5.8474    6.2865 C   0  0  0  0  0  0  0  0  0  0  0  0
   27.4667    4.6861    7.2749 C   0  0  0  0  0  0  0  0  0  0  0  0
   28.8067    4.8508    7.9942 C   0  0  0  0  0  0  0  0  0  0  0  0
   28.6225    5.4774    9.3491 C   0  0  0  0  0  0  0  0  0  0  0  0
   27.8987    6.6551    9.4685 O   0  0  0  0  0  0  0  0  0  0  0  0
   29.1490    4.9540   10.3676 O   0  0  0  0  0  0  0  0  0  0  0  0
   27.7757    7.1010   10.3695 H   0  0  0  0  0  0  0  0  0  0  0  0
   33.4257    6.3289    7.0689 C   0  0  0  0  0  0  0  0  0  0  0  0
   34.2844    6.5573    5.4749 S   0  0  0  0  0  0  0  0  0  0  0  0
   33.1981    7.1619    4.8255 H   0  0  0  0  0  0  0  0  0  0  0  0
   33.7177    3.4779   10.9351 C   0  0  0  0  0  0  0  0  0  0  0  0
   34.9854    2.8471   10.4190 C   0  0  0  0  0  0  0  0  0  0  0  0
   36.1373    3.5045   10.0519 C   0  0  0  0  0  0  0  0  0  0  0  0
   37.0372    2.6060    9.6077 N   0  0  0  0  0  0  0  0  0  0  0  0
   36.4014    1.4188    9.7057 C   0  0  0  0  0  0  0  0  0  0  0  0
   35.1534    1.5316   10.1956 N   0  0  0  0  0  0  0  0  0  0  0  0
   34.4538    0.7674   10.3259 H   0  0  0  0  0  0  0  0  0  0  0  0
   31.1985    8.3430   11.5077 C   0  0  0  0  0  0  0  0  0  0  0  0
   29.8077    7.8902   11.9840 C   0  0  0  0  0  0  0  0  0  0  0  0
   29.0421    9.0327   12.5922 C   0  0  0  0  0  0  0  0  0  0  0  0
   29.6629    9.9867   13.1327 O   0  0  0  0  0  0  0  0  0  0  0  0
   27.6133    9.0400   12.5704 N   0  0  0  0  0  0  0  0  0  0  0  0
   27.0840    9.8547   12.9538 H   0  0  0  0  0  0  0  0  0  0  0  0
   27.0751    8.2335   12.1847 H   0  0  0  0  0  0  0  0  0  0  0  0
   30.5656    7.3374   16.9670 C   0  0  0  0  0  0  0  0  0  0  0  0
   29.2326    7.8882   17.5023 C   0  0  0  0  0  0  0  0  0  0  0  0
   29.2807    8.2245   19.0037 C   0  0  0  0  0  0  0  0  0  0  0  0
   30.6552    8.0162   19.6736 C   0  0  0  0  0  0  0  0  0  0  0  0
   30.5596    7.8996   21.1307 N   0  0  0  0  0  0  0  0  0  0  0  0
   30.1121    6.9824   21.3684 H   0  0  0  0  0  0  0  0  0  0  0  0
   29.9481    8.6585   21.4956 H   0  0  0  0  0  0  0  0  0  0  0  0
   30.5171    1.2574   16.3392 C   0  0  0  0  0  0  0  0  0  0  0  0
   29.6608    0.9563   15.4654 O   0  0  0  0  0  0  0  0  0  0  0  0
   30.2109    2.2415   17.3304 N   0  0  0  0  0  0  0  0  0  0  0  0
   30.5643    2.1023   18.3057 H   0  0  0  0  0  0  0  0  0  0  0  0
   31.9247    0.7512   16.2190 C   0  0  0  0  0  0  0  0  0  0  0  0
   32.7259   -0.3406   18.3777 C   0  0  0  0  0  0  0  0  0  0  0  0
   32.5998   -0.2137   19.6304 O   0  0  0  0  0  0  0  0  0  0  0  0
   32.5469    0.8170   17.5439 N   0  0  0  0  0  0  0  0  0  0  0  0
   32.5615    1.7409   18.0276 H   0  0  0  0  0  0  0  0  0  0  0  0
   33.1578   -1.6672   17.7894 C   0  0  0  0  0  0  0  0  0  0  0  0
   35.3590   -2.5629   16.9110 C   0  0  0  0  0  0  0  0  0  0  0  0
   35.4603   -3.3614   17.8832 O   0  0  0  0  0  0  0  0  0  0  0  0
   34.3465   -1.5433   16.9331 N   0  0  0  0  0  0  0  0  0  0  0  0
   34.4584   -0.7321   16.2874 H   0  0  0  0  0  0  0  0  0  0  0  0
   36.2743   -2.6793   15.7153 C   0  0  0  0  0  0  0  0  0  0  0  0
   36.2150   -1.3868   14.9019 C   0  0  0  0  0  0  0  0  0  0  0  0
   36.9329   -4.6312   14.2045 C   0  0  0  0  0  0  0  0  0  0  0  0
   38.1414   -4.2717   14.2124 O   0  0  0  0  0  0  0  0  0  0  0  0
   35.9348   -3.8318   14.8626 N   0  0  0  0  0  0  0  0  0  0  0  0
   34.9436   -4.1315   14.7461 H   0  0  0  0  0  0  0  0  0  0  0  0
   36.5428   -5.9058   13.4975 C   0  0  0  0  0  0  0  0  0  0  0  0
   36.5286   -6.5383   11.0407 C   0  0  0  0  0  0  0  0  0  0  0  0
   35.5760   -7.0891   10.4214 O   0  0  0  0  0  0  0  0  0  0  0  0
   36.2245   -5.6178   12.0953 N   0  0  0  0  0  0  0  0  0  0  0  0
   35.4243   -4.9778   11.9169 H   0  0  0  0  0  0  0  0  0  0  0  0
   37.9436   -6.7566   10.5311 C   0  0  0  0  0  0  0  0  0  0  0  0
   39.2791   -5.4262    8.8687 C   0  0  0  0  0  0  0  0  0  0  0  0
   40.4344   -5.8548    9.1412 O   0  0  0  0  0  0  0  0  0  0  0  0
   38.1374   -6.2327    9.1772 N   0  0  0  0  0  0  0  0  0  0  0  0
   37.4743   -6.4722    8.4095 H   0  0  0  0  0  0  0  0  0  0  0  0
   37.7386   -3.8817    7.7638 N   0  0  0  0  0  0  0  0  0  0  0  0
   39.0951   -4.0321    8.3075 C   0  0  0  0  0  0  0  0  0  0  0  0
   37.6826   -2.9605    7.2692 H   0  0  0  0  0  0  0  0  0  0  0  0
   37.5937   -4.6080    7.0267 H   0  0  0  0  0  0  0  0  0  0  0  0
   39.4045   -2.9456    9.3613 C   0  0  0  0  0  0  0  0  0  0  0  0
   40.7042   -3.1570    9.8625 O   0  0  0  0  0  0  0  0  0  0  0  0
   39.3059   -1.5241    8.7896 C   0  0  0  0  0  0  0  0  0  0  0  0
   40.7808   -2.6255   10.6956 H   0  0  0  0  0  0  0  0  0  0  0  0
   38.3494   -8.2386   10.6104 C   0  0  0  0  0  0  0  0  0  0  0  0
   39.0148   -8.6349   11.9406 C   0  0  0  0  0  0  0  0  0  0  0  0
   40.0990   -7.6691   12.3475 C   0  0  0  0  0  0  0  0  0  0  0  0
   40.0023   -6.9848   13.3996 O   0  0  0  0  0  0  0  0  0  0  0  0
   41.2648   -7.5368   11.5366 N   0  0  0  0  0  0  0  0  0  0  0  0
   42.0297   -6.8868   11.8165 H   0  0  0  0  0  0  0  0  0  0  0  0
   41.3882   -8.1251   10.6796 H   0  0  0  0  0  0  0  0  0  0  0  0
   35.4019   -6.7205   14.1778 C   0  0  0  0  0  0  0  0  0  0  0  0
   35.4599   -8.2594   14.0812 C   0  0  0  0  0  0  0  0  0  0  0  0
   35.1340   -9.0303   15.3400 C   0  0  0  0  0  0  0  0  0  0  0  0
   35.4014   -8.5016   16.4482 O   0  0  0  0  0  0  0  0  0  0  0  0
   34.5788  -10.3497   15.3264 N   0  0  0  0  0  0  0  0  0  0  0  0
   34.4999  -10.9187   14.4586 H   0  0  0  0  0  0  0  0  0  0  0  0
   34.3437  -10.8224   16.2311 H   0  0  0  0  0  0  0  0  0  0  0  0
   31.9820   -2.2810   17.0012 C   0  0  0  0  0  0  0  0  0  0  0  0
   30.7540   -1.9762   17.6140 O   0  0  0  0  0  0  0  0  0  0  0  0
   30.4654   -1.0974   17.2453 H   0  0  0  0  0  0  0  0  0  0  0  0
   32.7390    1.5551   15.1886 C   0  0  0  0  0  0  0  0  0  0  0  0
   32.5562    0.9851   13.8105 C   0  0  0  0  0  0  0  0  0  0  0  0
   33.5192    0.3275   13.0674 C   0  0  0  0  0  0  0  0  0  0  0  0
   33.0068    0.0189   11.8581 N   0  0  0  0  0  0  0  0  0  0  0  0
   31.7413    0.4968   11.8981 C   0  0  0  0  0  0  0  0  0  0  0  0
   31.4382    1.0808   13.0758 N   0  0  0  0  0  0  0  0  0  0  0  0
   30.5380    1.5396   13.3338 H   0  0  0  0  0  0  0  0  0  0  0  0
 95 96  1  0  0  0
 96 91  1  0  0  0
 91 92  2  0  0  0
 91 93  1  0  0  0
 93 90  1  0  0  0
 90103  1  0  0  0
103104  1  0  0  0
104105  1  0  0  0
105106  2  0  0  0
105107  1  0  0  0
 90 86  1  0  0  0
 86 87  2  0  0  0
 86 88  1  0  0  0
 88 85  1  0  0  0
 85110  1  0  0  0
110111  1  0  0  0
111112  1  0  0  0
112113  2  0  0  0
112114  1  0  0  0
 85 81  1  0  0  0
 81 82  2  0  0  0
 81 83  1  0  0  0
 83 79  1  0  0  0
 79 80  1  0  0  0
 79 75  1  0  0  0
 75 76  2  0  0  0
 75 77  1  0  0  0
 77 74  1  0  0  0
 74117  1  0  0  0
117118  1  0  0  0
 74 70  1  0  0  0
 70 71  2  0  0  0
 70 72  1  0  0  0
 72 69  1  0  0  0
 69120  1  0  0  0
120121  1  0  0  0
121122  2  0  0  0
122123  1  0  0  0
123124  2  0  0  0
124125  1  0  0  0
 69 65  1  0  0  0
 65 66  2  0  0  0
 65 67  1  0  0  0
 67  1  1  0  0  0
  1  2  1  0  0  0
  2  3  2  0  0  0
  3  4  1  0  0  0
  4  5  2  0  0  0
  5  6  1  0  0  0
  5  7  1  0  0  0
  7  8  2  0  0  0
  1 10  1  0  0  0
 10 11  2  0  0  0
 10 12  1  0  0  0
 12 14  1  0  0  0
 14 58  1  0  0  0
 58 59  1  0  0  0
 59 60  1  0  0  0
 60 61  1  0  0  0
 61 62  1  0  0  0
 14 15  1  0  0  0
 15 16  2  0  0  0
 15 17  1  0  0  0
 17 19  1  0  0  0
 19 51  1  0  0  0
 51 52  1  0  0  0
 52 53  1  0  0  0
 53 54  2  0  0  0
 53 55  1  0  0  0
 19 20  1  0  0  0
 20 21  2  0  0  0
 20 22  1  0  0  0
 22 24  1  0  0  0
 24 44  1  0  0  0
 44 45  1  0  0  0
 45 46  2  0  0  0
 46 47  1  0  0  0
 47 48  2  0  0  0
 48 49  1  0  0  0
 24 25  1  0  0  0
 25 26  2  0  0  0
 25 27  1  0  0  0
 27 29  1  0  0  0
 29 41  1  0  0  0
 41 42  1  0  0  0
 29 30  1  0  0  0
 30 31  2  0  0  0
 30 32  1  0  0  0
 32 33  1  0  0  0
 33 34  1  0  0  0
 34 35  1  0  0  0
 35 36  1  0  0  0
 36 37  1  0  0  0
 37 38  1  0  0  0
 37 39  2  0  0  0
 96 99  1  0  0  0
 99100  1  0  0  0
 99101  1  0  0  0
125121  1  0  0  0
  8  2  1  0  0  0
 49 45  1  0  0  0
 36 32  1  0  0  0
 95 97  1  0  0  0
 95 98  1  0  0  0
 93 94  1  0  0  0
107108  1  0  0  0
107109  1  0  0  0
 88 89  1  0  0  0
114115  1  0  0  0
114116  1  0  0  0
 83 84  1  0  0  0
 77 78  1  0  0  0
118119  1  0  0  0
 72 73  1  0  0  0
125126  1  0  0  0
 67 68  1  0  0  0
  6  9  1  0  0  0
 12 13  1  0  0  0
 62 63  1  0  0  0
 62 64  1  0  0  0
 17 18  1  0  0  0
 55 56  1  0  0  0
 55 57  1  0  0  0
 22 23  1  0  0  0
 49 50  1  0  0  0
 27 28  1  0  0  0
 42 43  1  0  0  0
 38 40  1  0  0  0
100102  1  0  0  0
M  END
> <minimizedAffinity>
-4.60177

$$$$



126129  0  0  0  0  0  0  0  0999 V2000
    2.5341    4.2248    2.6472 C   0  0  0  0  0  0  0  0  0  0  0  0
    1.9359    2.8674    2.3586 C   0  0  0  0  0  0  0  0  0  0  0  0
    2.7373    1.7115    2.3448 C   0  0  0  0  0  0  0  0  0  0  0  0
    2.1640    0.4567    2.1255 C   0  0  0  0  0  0  0  0  0  0  0  0
    0.7871    0.3402    1.8970 C   0  0  0  0  0  0  0  0  0  0  0  0
    0.2240   -0.9171    1.6819 O   0  0  0  0  0  0  0  0  0  0  0  0
   -0.0153    1.4874    1.8928 C   0  0  0  0  0  0  0  0  0  0  0  0
    0.5561    2.7416    2.1318 C   0  0  0  0  0  0  0  0  0  0  0  0
   -0.7615   -1.0217    1.4704 H   0  0  0  0  0  0  0  0  0  0  0  0
    2.4929    4.5225    4.1233 C   0  0  0  0  0  0  0  0  0  0  0  0
    3.4049    5.2016    4.6642 O   0  0  0  0  0  0  0  0  0  0  0  0
    1.4303    3.9928    4.9277 N   0  0  0  0  0  0  0  0  0  0  0  0
    0.4665    4.0390    4.5236 H   0  0  0  0  0  0  0  0  0  0  0  0
    1.6246    3.0738    6.0613 C   0  0  0  0  0  0  0  0  0  0  0  0
    1.6900    3.8745    7.3404 C   0  0  0  0  0  0  0  0  0  0  0  0
    0.8914    4.8347    7.5376 O   0  0  0  0  0  0  0  0  0  0  0  0
    2.6760    3.5464    8.3291 N   0  0  0  0  0  0  0  0  0  0  0  0
    3.1735    2.6309    8.2406 H   0  0  0  0  0  0  0  0  0  0  0  0
    3.2699    4.5704    9.1963 C   0  0  0  0  0  0  0  0  0  0  0  0
    2.8015    4.3717   10.6177 C   0  0  0  0  0  0  0  0  0  0  0  0
    1.5728    4.2206   10.8496 O   0  0  0  0  0  0  0  0  0  0  0  0
    3.7546    4.2887   11.6932 N   0  0  0  0  0  0  0  0  0  0  0  0
    4.7695    4.3452   11.4391 H   0  0  0  0  0  0  0  0  0  0  0  0
    3.3684    3.8459   13.0434 C   0  0  0  0  0  0  0  0  0  0  0  0
    4.1302    4.5898   14.1217 C   0  0  0  0  0  0  0  0  0  0  0  0
    5.2036    5.1813   13.8241 O   0  0  0  0  0  0  0  0  0  0  0  0
    3.7456    4.5270   15.5086 N   0  0  0  0  0  0  0  0  0  0  0  0
    4.5304    4.4531   16.1988 H   0  0  0  0  0  0  0  0  0  0  0  0
    2.4264    4.8869   16.0600 C   0  0  0  0  0  0  0  0  0  0  0  0
    1.9940    3.9237   17.1425 C   0  0  0  0  0  0  0  0  0  0  0  0
    1.8290    4.3335   18.3182 O   0  0  0  0  0  0  0  0  0  0  0  0
    1.8903    2.5166   16.8858 N   0  0  0  0  0  0  0  0  0  0  0  0
    0.6432    1.8749   16.5080 C   0  0  0  0  0  0  0  0  0  0  0  0
    0.8489    0.3906   16.7725 C   0  0  0  0  0  0  0  0  0  0  0  0
    2.3612    0.1949   16.8561 C   0  0  0  0  0  0  0  0  0  0  0  0
    2.9337    1.5615   17.2363 C   0  0  0  0  0  0  0  0  0  0  0  0
    3.2554    1.6264   18.7042 C   0  0  0  0  0  0  0  0  0  0  0  0
    2.2269    1.5921   19.6349 O   0  0  0  0  0  0  0  0  0  0  0  0
    4.4503    1.7436   19.0877 O   0  0  0  0  0  0  0  0  0  0  0  0
    2.4212    1.6496   20.6271 H   0  0  0  0  0  0  0  0  0  0  0  0
    2.3961    6.3599   16.5164 C   0  0  0  0  0  0  0  0  0  0  0  0
    0.7884    7.1516   16.1716 S   0  0  0  0  0  0  0  0  0  0  0  0
    0.0299    6.2425   16.9236 H   0  0  0  0  0  0  0  0  0  0  0  0
    3.5771    2.3214   13.1719 C   0  0  0  0  0  0  0  0  0  0  0  0
    2.2818    1.5526   13.1215 C   0  0  0  0  0  0  0  0  0  0  0  0
    2.1351    0.1873   13.2140 C   0  0  0  0  0  0  0  0  0  0  0  0
    0.8312   -0.1270   13.0898 N   0  0  0  0  0  0  0  0  0  0  0  0
    0.2157    1.0617   12.9123 C   0  0  0  0  0  0  0  0  0  0  0  0
    1.0696    2.1013   12.9271 N   0  0  0  0  0  0  0  0  0  0  0  0
    0.8422    3.1086   12.7716 H   0  0  0  0  0  0  0  0  0  0  0  0
    4.8100    4.4885    9.1346 C   0  0  0  0  0  0  0  0  0  0  0  0
    5.3763    5.0646    7.8255 C   0  0  0  0  0  0  0  0  0  0  0  0
    5.1746    6.5530    7.7538 C   0  0  0  0  0  0  0  0  0  0  0  0
    5.4928    7.2772    8.7345 O   0  0  0  0  0  0  0  0  0  0  0  0
    4.6149    7.1523    6.5835 N   0  0  0  0  0  0  0  0  0  0  0  0
    4.5162    8.1900    6.5180 H   0  0  0  0  0  0  0  0  0  0  0  0
    4.2861    6.5694    5.7830 H   0  0  0  0  0  0  0  0  0  0  0  0
    2.8427    2.1314    5.8870 C   0  0  0  0  0  0  0  0  0  0  0  0
    2.4425    0.6460    5.8823 C   0  0  0  0  0  0  0  0  0  0  0  0
    0.9412    0.4288    5.6204 C   0  0  0  0  0  0  0  0  0  0  0  0
    0.4405   -1.0112    5.8591 C   0  0  0  0  0  0  0  0  0  0  0  0
    0.6386   -1.8768    4.6940 N   0  0  0  0  0  0  0  0  0  0  0  0
    1.6630   -2.0673    4.5839 H   0  0  0  0  0  0  0  0  0  0  0  0
    0.3114   -1.3809    3.8395 H   0  0  0  0  0  0  0  0  0  0  0  0
    4.2646    5.3090    1.1853 C   0  0  0  0  0  0  0  0  0  0  0  0
    3.5441    5.5056    0.1707 O   0  0  0  0  0  0  0  0  0  0  0  0
    3.9049    4.2999    2.1324 N   0  0  0  0  0  0  0  0  0  0  0  0
    4.6636    3.7355    2.5811 H   0  0  0  0  0  0  0  0  0  0  0  0
    5.3730    6.2646    1.5175 C   0  0  0  0  0  0  0  0  0  0  0  0
    6.6459    6.8545    3.6449 C   0  0  0  0  0  0  0  0  0  0  0  0
    6.9925    6.3280    4.7421 O   0  0  0  0  0  0  0  0  0  0  0  0
    5.4757    6.3532    2.9765 N   0  0  0  0  0  0  0  0  0  0  0  0
    4.8421    5.7507    3.5448 H   0  0  0  0  0  0  0  0  0  0  0  0
    7.3968    8.0552    3.1091 C   0  0  0  0  0  0  0  0  0  0  0  0
    9.8956    8.1327    2.6977 C   0  0  0  0  0  0  0  0  0  0  0  0
    9.7497    7.6921    1.5240 O   0  0  0  0  0  0  0  0  0  0  0  0
    8.7798    8.1211    3.6035 N   0  0  0  0  0  0  0  0  0  0  0  0
    8.9799    8.2072    4.6233 H   0  0  0  0  0  0  0  0  0  0  0  0
   11.2219    8.6917    3.1554 C   0  0  0  0  0  0  0  0  0  0  0  0
   12.1995    8.7075    1.9809 C   0  0  0  0  0  0  0  0  0  0  0  0
   11.8216    8.4347    5.6253 C   0  0  0  0  0  0  0  0  0  0  0  0
   11.4966    9.6298    5.8618 O   0  0  0  0  0  0  0  0  0  0  0  0
   11.7912    7.9283    4.2796 N   0  0  0  0  0  0  0  0  0  0  0  0
   12.1553    6.9628    4.1345 H   0  0  0  0  0  0  0  0  0  0  0  0
   12.2442    7.5414    6.7655 C   0  0  0  0  0  0  0  0  0  0  0  0
   14.3234    6.2884    7.5022 C   0  0  0  0  0  0  0  0  0  0  0  0
   14.5566    5.0617    7.3142 O   0  0  0  0  0  0  0  0  0  0  0  0
   13.5867    7.0103    6.5083 N   0  0  0  0  0  0  0  0  0  0  0  0
   13.8205    6.7819    5.5209 H   0  0  0  0  0  0  0  0  0  0  0  0
   14.9724    6.9726    8.6939 C   0  0  0  0  0  0  0  0  0  0  0  0
   16.3218    8.4425    7.1656 C   0  0  0  0  0  0  0  0  0  0  0  0
   15.4906    9.3754    6.9888 O   0  0  0  0  0  0  0  0  0  0  0  0
   16.2319    7.6322    8.3423 N   0  0  0  0  0  0  0  0  0  0  0  0
   17.0671    7.5585    8.9616 H   0  0  0  0  0  0  0  0  0  0  0  0
   17.5877    9.3021    5.2582 N   0  0  0  0  0  0  0  0  0  0  0  0
   17.3470    8.1214    6.0987 C   0  0  0  0  0  0  0  0  0  0  0  0
   18.1966    9.0162    4.4558 H   0  0  0  0  0  0  0  0  0  0  0  0
   16.6801    9.5982    4.8335 H   0  0  0  0  0  0  0  0  0  0  0  0
   18.6610    7.5864    6.7101 C   0  0  0  0  0  0  0  0  0  0  0  0
   18.8609    6.2635    6.2687 O   0  0  0  0  0  0  0  0  0  0  0  0
   19.8794    8.4387    6.3281 C   0  0  0  0  0  0  0  0  0  0  0  0
   19.5487    5.8641    6.8602 H   0  0  0  0  0  0  0  0  0  0  0  0
   15.1720    5.9957    9.8656 C   0  0  0  0  0  0  0  0  0  0  0  0
   16.5659    5.3443    9.9069 C   0  0  0  0  0  0  0  0  0  0  0  0
   17.5138    6.0797   10.8204 C   0  0  0  0  0  0  0  0  0  0  0  0
   18.3050    6.9515   10.3750 O   0  0  0  0  0  0  0  0  0  0  0  0
   17.5063    5.7967   12.2183 N   0  0  0  0  0  0  0  0  0  0  0  0
   18.1431    6.3113   12.8629 H   0  0  0  0  0  0  0  0  0  0  0  0
   16.8290    5.1067   12.6193 H   0  0  0  0  0  0  0  0  0  0  0  0
   11.2452    6.3991    7.1199 C   0  0  0  0  0  0  0  0  0  0  0  0
    9.7784    6.5597    6.6687 C   0  0  0  0  0  0  0  0  0  0  0  0
    8.8547    7.2923    7.6147 C   0  0  0  0  0  0  0  0  0  0  0  0
    8.3183    8.3572    7.2181 O   0  0  0  0  0  0  0  0  0  0  0  0
    8.5998    6.8540    8.9534 N   0  0  0  0  0  0  0  0  0  0  0  0
    9.1416    6.0914    9.4093 H   0  0  0  0  0  0  0  0  0  0  0  0
    7.9246    7.3851    9.5530 H   0  0  0  0  0  0  0  0  0  0  0  0
    6.6270    9.3413    3.4750 C   0  0  0  0  0  0  0  0  0  0  0  0
    5.7502    9.1124    4.5497 O   0  0  0  0  0  0  0  0  0  0  0  0
    6.2778    9.2621    5.3809 H   0  0  0  0  0  0  0  0  0  0  0  0
    5.1392    7.6545    0.8974 C   0  0  0  0  0  0  0  0  0  0  0  0
    6.1152    7.9063   -0.2169 C   0  0  0  0  0  0  0  0  0  0  0  0
    5.9386    8.7838   -1.2708 C   0  0  0  0  0  0  0  0  0  0  0  0
    6.9965    8.6905   -2.1029 N   0  0  0  0  0  0  0  0  0  0  0  0
    7.7921    7.7572   -1.5306 C   0  0  0  0  0  0  0  0  0  0  0  0
    7.2850    7.2705   -0.3790 N   0  0  0  0  0  0  0  0  0  0  0  0
    7.7027    6.5308    0.2259 H   0  0  0  0  0  0  0  0  0  0  0  0
 95 96  1  0  0  0
 96 91  1  0  0  0
 91 92  2  0  0  0
 91 93  1  0  0  0
 93 90  1  0  0  0
 90103  1  0  0  0
103104  1  0  0  0
104105  1  0  0  0
105106  2  0  0  0
105107  1  0  0  0
 90 86  1  0  0  0
 86 87  2  0  0  0
 86 88  1  0  0  0
 88 85  1  0  0  0
 85110  1  0  0  0
110111  1  0  0  0
111112  1  0  0  0
112113  2  0  0  0
112114  1  0  0  0
 85 81  1  0  0  0
 81 82  2  0  0  0
 81 83  1  0  0  0
 83 79  1  0  0  0
 79 80  1  0  0  0
 79 75  1  0  0  0
 75 76  2  0  0  0
 75 77  1  0  0  0
 77 74  1  0  0  0
 74117  1  0  0  0
117118  1  0  0  0
 74 70  1  0  0  0
 70 71  2  0  0  0
 70 72  1  0  0  0
 72 69  1  0  0  0
 69120  1  0  0  0
120121  1  0  0  0
121122  2  0  0  0
122123  1  0  0  0
123124  2  0  0  0
124125  1  0  0  0
 69 65  1  0  0  0
 65 66  2  0  0  0
 65 67  1  0  0  0
 67  1  1  0  0  0
  1  2  1  0  0  0
  2  3  2  0  0  0
  3  4  1  0  0  0
  4  5  2  0  0  0
  5  6  1  0  0  0
  5  7  1  0  0  0
  7  8  2  0  0  0
  1 10  1  0  0  0
 10 11  2  0  0  0
 10 12  1  0  0  0
 12 14  1  0  0  0
 14 58  1  0  0  0
 58 59  1  0  0  0
 59 60  1  0  0  0
 60 61  1  0  0  0
 61 62  1  0  0  0
 14 15  1  0  0  0
 15 16  2  0  0  0
 15 17  1  0  0  0
 17 19  1  0  0  0
 19 51  1  0  0  0
 51 52  1  0  0  0
 52 53  1  0  0  0
 53 54  2  0  0  0
 53 55  1  0  0  0
 19 20  1  0  0  0
 20 21  2  0  0  0
 20 22  1  0  0  0
 22 24  1  0  0  0
 24 44  1  0  0  0
 44 45  1  0  0  0
 45 46  2  0  0  0
 46 47  1  0  0  0
 47 48  2  0  0  0
 48 49  1  0  0  0
 24 25  1  0  0  0
 25 26  2  0  0  0
 25 27  1  0  0  0
 27 29  1  0  0  0
 29 41  1  0  0  0
 41 42  1  0  0  0
 29 30  1  0  0  0
 30 31  2  0  0  0
 30 32  1  0  0  0
 32 33  1  0  0  0
 33 34  1  0  0  0
 34 35  1  0  0  0
 35 36  1  0  0  0
 36 37  1  0  0  0
 37 38  1  0  0  0
 37 39  2  0  0  0
 96 99  1  0  0  0
 99100  1  0  0  0
 99101  1  0  0  0
125121  1  0  0  0
  8  2  1  0  0  0
 49 45  1  0  0  0
 36 32  1  0  0  0
 95 97  1  0  0  0
 95 98  1  0  0  0
 93 94  1  0  0  0
107108  1  0  0  0
107109  1  0  0  0
 88 89  1  0  0  0
114115  1  0  0  0
114116  1  0  0  0
 83 84  1  0  0  0
 77 78  1  0  0  0
118119  1  0  0  0
 72 73  1  0  0  0
125126  1  0  0  0
 67 68  1  0  0  0
  6  9  1  0  0  0
 12 13  1  0  0  0
 62 63  1  0  0  0
 62 64  1  0  0  0
 17 18  1  0  0  0
 55 56  1  0  0  0
 55 57  1  0  0  0
 22 23  1  0  0  0
 49 50  1  0  0  0
 27 28  1  0  0  0
 42 43  1  0  0  0
 38 40  1  0  0  0
100102  1  0  0  0
M  END
> <minimizedAffinity>
-4.53550

$$$$



126129  0  0  0  0  0  0  0  0999 V2000
   35.5554    1.5421   11.4944 C   0  0  0  0  0  0  0  0  0  0  0  0
   34.1899    1.0296   11.8897 C   0  0  0  0  0  0  0  0  0  0  0  0
   33.8501    0.8444   13.2420 C   0  0  0  0  0  0  0  0  0  0  0  0
   32.5683    0.4171   13.5965 C   0  0  0  0  0  0  0  0  0  0  0  0
   31.6147    0.1496   12.6062 C   0  0  0  0  0  0  0  0  0  0  0  0
   30.3370   -0.2737   12.9703 O   0  0  0  0  0  0  0  0  0  0  0  0
   31.9497    0.3157   11.2571 C   0  0  0  0  0  0  0  0  0  0  0  0
   33.2272    0.7622   10.9034 C   0  0  0  0  0  0  0  0  0  0  0  0
   29.6450   -0.5159   12.2708 H   0  0  0  0  0  0  0  0  0  0  0  0
   36.3280    1.9909   12.7072 C   0  0  0  0  0  0  0  0  0  0  0  0
   36.4428    1.2352   13.7078 O   0  0  0  0  0  0  0  0  0  0  0  0
   36.9012    3.3050   12.7409 N   0  0  0  0  0  0  0  0  0  0  0  0
   37.3766    3.6334   11.8688 H   0  0  0  0  0  0  0  0  0  0  0  0
   36.5516    4.3395   13.7283 C   0  0  0  0  0  0  0  0  0  0  0  0
   35.6193    5.3397   13.0866 C   0  0  0  0  0  0  0  0  0  0  0  0
   34.9732    6.1619   13.7973 O   0  0  0  0  0  0  0  0  0  0  0  0
   35.4605    5.3432   11.6611 N   0  0  0  0  0  0  0  0  0  0  0  0
   36.1541    4.8091   11.0890 H   0  0  0  0  0  0  0  0  0  0  0  0
   34.1927    5.7221   11.0268 C   0  0  0  0  0  0  0  0  0  0  0  0
   34.4451    6.1754    9.6090 C   0  0  0  0  0  0  0  0  0  0  0  0
   35.0808    7.2431    9.4039 O   0  0  0  0  0  0  0  0  0  0  0  0
   34.0222    5.3624    8.4988 N   0  0  0  0  0  0  0  0  0  0  0  0
   33.5642    4.4471    8.7226 H   0  0  0  0  0  0  0  0  0  0  0  0
   34.4662    5.6339    7.1214 C   0  0  0  0  0  0  0  0  0  0  0  0
   33.3759    5.3463    6.1090 C   0  0  0  0  0  0  0  0  0  0  0  0
   33.2450    4.1760    5.6572 O   0  0  0  0  0  0  0  0  0  0  0  0
   32.5717    6.3949    5.5356 N   0  0  0  0  0  0  0  0  0  0  0  0
   32.3647    6.3061    4.5124 H   0  0  0  0  0  0  0  0  0  0  0  0
   31.7522    7.3665    6.2829 C   0  0  0  0  0  0  0  0  0  0  0  0
   30.7475    6.6759    7.1774 C   0  0  0  0  0  0  0  0  0  0  0  0
   31.0674    6.3520    8.3479 O   0  0  0  0  0  0  0  0  0  0  0  0
   29.4687    6.2628    6.6766 N   0  0  0  0  0  0  0  0  0  0  0  0
   28.2734    7.0788    6.8006 C   0  0  0  0  0  0  0  0  0  0  0  0
   27.1045    6.1311    6.5749 C   0  0  0  0  0  0  0  0  0  0  0  0
   27.6968    4.9086    5.8771 C   0  0  0  0  0  0  0  0  0  0  0  0
   29.1806    4.8998    6.2488 C   0  0  0  0  0  0  0  0  0  0  0  0
   29.4583    3.9164    7.3525 C   0  0  0  0  0  0  0  0  0  0  0  0
   29.0008    4.1774    8.6361 O   0  0  0  0  0  0  0  0  0  0  0  0
   30.1303    2.8756    7.1213 O   0  0  0  0  0  0  0  0  0  0  0  0
   29.1899    3.5356    9.3963 H   0  0  0  0  0  0  0  0  0  0  0  0
   32.6380    8.3775    7.0393 C   0  0  0  0  0  0  0  0  0  0  0  0
   31.7569    9.9382    7.3833 S   0  0  0  0  0  0  0  0  0  0  0  0
   30.7154    9.3438    8.1109 H   0  0  0  0  0  0  0  0  0  0  0  0
   35.7372    4.8136    6.8120 C   0  0  0  0  0  0  0  0  0  0  0  0
   36.9653    5.6764    6.6755 C   0  0  0  0  0  0  0  0  0  0  0  0
   37.7199    5.8539    5.5383 C   0  0  0  0  0  0  0  0  0  0  0  0
   38.7573    6.6662    5.8180 N   0  0  0  0  0  0  0  0  0  0  0  0
   38.6128    6.9545    7.1292 C   0  0  0  0  0  0  0  0  0  0  0  0
   37.5334    6.3688    7.6787 N   0  0  0  0  0  0  0  0  0  0  0  0
   37.2337    6.4064    8.6783 H   0  0  0  0  0  0  0  0  0  0  0  0
   33.2200    4.5236   11.0297 C   0  0  0  0  0  0  0  0  0  0  0  0
   32.3805    4.4522   12.3166 C   0  0  0  0  0  0  0  0  0  0  0  0
   31.0708    3.7542   12.0740 C   0  0  0  0  0  0  0  0  0  0  0  0
   30.6717    3.5615   10.8945 O   0  0  0  0  0  0  0  0  0  0  0  0
   30.2695    3.3156   13.1729 N   0  0  0  0  0  0  0  0  0  0  0  0
   29.3819    2.7922   13.0028 H   0  0  0  0  0  0  0  0  0  0  0  0
   30.5473    3.5179   14.1582 H   0  0  0  0  0  0  0  0  0  0  0  0
   37.7877    5.0112   14.3788 C   0  0  0  0  0  0  0  0  0  0  0  0
   38.3121    6.2014   13.5571 C   0  0  0  0  0  0  0  0  0  0  0  0
   39.2969    5.7808   12.4511 C   0  0  0  0  0  0  0  0  0  0  0  0
   39.2484    6.6449   11.1735 C   0  0  0  0  0  0  0  0  0  0  0  0
   37.8794    6.9110   10.7253 N   0  0  0  0  0  0  0  0  0  0  0  0
   37.4257    7.5739   11.3981 H   0  0  0  0  0  0  0  0  0  0  0  0
   37.3369    6.0229   10.7356 H   0  0  0  0  0  0  0  0  0  0  0  0
   37.2000    0.8904    9.7117 C   0  0  0  0  0  0  0  0  0  0  0  0
   36.8401    1.7121    8.8271 O   0  0  0  0  0  0  0  0  0  0  0  0
   36.2918    0.5154   10.7505 N   0  0  0  0  0  0  0  0  0  0  0  0
   36.2925   -0.4754   11.0881 H   0  0  0  0  0  0  0  0  0  0  0  0
   38.6372    0.4690    9.8069 C   0  0  0  0  0  0  0  0  0  0  0  0
   39.7146    1.1901   12.0008 C   0  0  0  0  0  0  0  0  0  0  0  0
   39.6686    2.1412   12.8342 O   0  0  0  0  0  0  0  0  0  0  0  0
   39.3450    1.4485   10.6356 N   0  0  0  0  0  0  0  0  0  0  0  0
   39.2914    2.4512   10.3538 H   0  0  0  0  0  0  0  0  0  0  0  0
   40.2482   -0.1628   12.4224 C   0  0  0  0  0  0  0  0  0  0  0  0
   38.4389   -1.5701   13.5018 C   0  0  0  0  0  0  0  0  0  0  0  0
   37.7697   -1.5902   12.4319 O   0  0  0  0  0  0  0  0  0  0  0  0
   39.5689   -0.6893   13.6152 N   0  0  0  0  0  0  0  0  0  0  0  0
   39.9217   -0.4709   14.5719 H   0  0  0  0  0  0  0  0  0  0  0  0
   38.0802   -2.4754   14.6563 C   0  0  0  0  0  0  0  0  0  0  0  0
   39.1556   -2.3715   15.7371 C   0  0  0  0  0  0  0  0  0  0  0  0
   36.6284   -4.4745   14.0067 C   0  0  0  0  0  0  0  0  0  0  0  0
   35.5761   -3.8507   14.3124 O   0  0  0  0  0  0  0  0  0  0  0  0
   37.9168   -3.8779   14.2357 N   0  0  0  0  0  0  0  0  0  0  0  0
   38.7494   -4.4753   14.0468 H   0  0  0  0  0  0  0  0  0  0  0  0
   36.5243   -5.8522   13.4003 C   0  0  0  0  0  0  0  0  0  0  0  0
   36.2044   -6.8674   11.0974 C   0  0  0  0  0  0  0  0  0  0  0  0
   35.1231   -7.3226   10.6305 O   0  0  0  0  0  0  0  0  0  0  0  0
   36.1531   -5.7447   11.9856 N   0  0  0  0  0  0  0  0  0  0  0  0
   35.4683   -5.0033   11.7345 H   0  0  0  0  0  0  0  0  0  0  0  0
   37.5132   -7.4305   10.5689 C   0  0  0  0  0  0  0  0  0  0  0  0
   39.1256   -5.9891    9.2884 C   0  0  0  0  0  0  0  0  0  0  0  0
   40.2132   -6.4770    9.7029 O   0  0  0  0  0  0  0  0  0  0  0  0
   37.9370   -6.7861    9.3238 N   0  0  0  0  0  0  0  0  0  0  0  0
   37.4074   -6.9308    8.4378 H   0  0  0  0  0  0  0  0  0  0  0  0
   37.8131   -4.3000    8.1036 N   0  0  0  0  0  0  0  0  0  0  0  0
   39.0576   -4.5429    8.8456 C   0  0  0  0  0  0  0  0  0  0  0  0
   37.8535   -3.3346    7.7003 H   0  0  0  0  0  0  0  0  0  0  0  0
   37.7829   -4.9480    7.2844 H   0  0  0  0  0  0  0  0  0  0  0  0
   39.2022   -3.5718   10.0384 C   0  0  0  0  0  0  0  0  0  0  0  0
   38.8373   -4.2472   11.2198 O   0  0  0  0  0  0  0  0  0  0  0  0
   40.6299   -3.0267   10.1857 C   0  0  0  0  0  0  0  0  0  0  0  0
   38.6915   -3.5544   11.9134 H   0  0  0  0  0  0  0  0  0  0  0  0
   37.4431   -8.9583   10.4009 C   0  0  0  0  0  0  0  0  0  0  0  0
   38.7810   -9.6773   10.6498 C   0  0  0  0  0  0  0  0  0  0  0  0
   39.4435   -9.2262   11.9271 C   0  0  0  0  0  0  0  0  0  0  0  0
   38.9635   -9.5245   13.0519 O   0  0  0  0  0  0  0  0  0  0  0  0
   40.6452   -8.4604   11.8647 N   0  0  0  0  0  0  0  0  0  0  0  0
   41.1229   -8.1585   12.7402 H   0  0  0  0  0  0  0  0  0  0  0  0
   41.0870   -8.2353   10.9430 H   0  0  0  0  0  0  0  0  0  0  0  0
   35.5858   -6.8411   14.1549 C   0  0  0  0  0  0  0  0  0  0  0  0
   36.2348   -8.0401   14.8776 C   0  0  0  0  0  0  0  0  0  0  0  0
   35.3460   -8.8321   15.8089 C   0  0  0  0  0  0  0  0  0  0  0  0
   34.5914   -9.7058   15.3125 O   0  0  0  0  0  0  0  0  0  0  0  0
   35.2912   -8.6015   17.2207 N   0  0  0  0  0  0  0  0  0  0  0  0
   35.7455   -7.7832   17.6758 H   0  0  0  0  0  0  0  0  0  0  0  0
   34.6794   -9.2037   17.8209 H   0  0  0  0  0  0  0  0  0  0  0  0
   41.7682   -0.0569   12.6650 C   0  0  0  0  0  0  0  0  0  0  0  0
   42.3201    1.0080   11.9319 O   0  0  0  0  0  0  0  0  0  0  0  0
   42.2321    1.8191   12.5029 H   0  0  0  0  0  0  0  0  0  0  0  0
   39.2936    0.3462    8.4194 C   0  0  0  0  0  0  0  0  0  0  0  0
   39.9709    1.6327    8.0402 C   0  0  0  0  0  0  0  0  0  0  0  0
   41.3051    1.9387    8.2359 C   0  0  0  0  0  0  0  0  0  0  0  0
   41.5303    3.2049    7.8282 N   0  0  0  0  0  0  0  0  0  0  0  0
   40.3240    3.6366    7.3923 C   0  0  0  0  0  0  0  0  0  0  0  0
   39.3605    2.6987    7.5014 N   0  0  0  0  0  0  0  0  0  0  0  0
   38.3530    2.8041    7.2537 H   0  0  0  0  0  0  0  0  0  0  0  0
 95 96  1  0  0  0
 96 91  1  0  0  0
 91 92  2  0  0  0
 91 93  1  0  0  0
 93 90  1  0  0  0
 90103  1  0  0  0
103104  1  0  0  0
104105  1  0  0  0
105106  2  0  0  0
105107  1  0  0  0
 90 86  1  0  0  0
 86 87  2  0  0  0
 86 88  1  0  0  0
 88 85  1  0  0  0
 85110  1  0  0  0
110111  1  0  0  0
111112  1  0  0  0
112113  2  0  0  0
112114  1  0  0  0
 85 81  1  0  0  0
 81 82  2  0  0  0
 81 83  1  0  0  0
 83 79  1  0  0  0
 79 80  1  0  0  0
 79 75  1  0  0  0
 75 76  2  0  0  0
 75 77  1  0  0  0
 77 74  1  0  0  0
 74117  1  0  0  0
117118  1  0  0  0
 74 70  1  0  0  0
 70 71  2  0  0  0
 70 72  1  0  0  0
 72 69  1  0  0  0
 69120  1  0  0  0
120121  1  0  0  0
121122  2  0  0  0
122123  1  0  0  0
123124  2  0  0  0
124125  1  0  0  0
 69 65  1  0  0  0
 65 66  2  0  0  0
 65 67  1  0  0  0
 67  1  1  0  0  0
  1  2  1  0  0  0
  2  3  2  0  0  0
  3  4  1  0  0  0
  4  5  2  0  0  0
  5  6  1  0  0  0
  5  7  1  0  0  0
  7  8  2  0  0  0
  1 10  1  0  0  0
 10 11  2  0  0  0
 10 12  1  0  0  0
 12 14  1  0  0  0
 14 58  1  0  0  0
 58 59  1  0  0  0
 59 60  1  0  0  0
 60 61  1  0  0  0
 61 62  1  0  0  0
 14 15  1  0  0  0
 15 16  2  0  0  0
 15 17  1  0  0  0
 17 19  1  0  0  0
 19 51  1  0  0  0
 51 52  1  0  0  0
 52 53  1  0  0  0
 53 54  2  0  0  0
 53 55  1  0  0  0
 19 20  1  0  0  0
 20 21  2  0  0  0
 20 22  1  0  0  0
 22 24  1  0  0  0
 24 44  1  0  0  0
 44 45  1  0  0  0
 45 46  2  0  0  0
 46 47  1  0  0  0
 47 48  2  0  0  0
 48 49  1  0  0  0
 24 25  1  0  0  0
 25 26  2  0  0  0
 25 27  1  0  0  0
 27 29  1  0  0  0
 29 41  1  0  0  0
 41 42  1  0  0  0
 29 30  1  0  0  0
 30 31  2  0  0  0
 30 32  1  0  0  0
 32 33  1  0  0  0
 33 34  1  0  0  0
 34 35  1  0  0  0
 35 36  1  0  0  0
 36 37  1  0  0  0
 37 38  1  0  0  0
 37 39  2  0  0  0
 96 99  1  0  0  0
 99100  1  0  0  0
 99101  1  0  0  0
125121  1  0  0  0
  8  2  1  0  0  0
 49 45  1  0  0  0
 36 32  1  0  0  0
 95 97  1  0  0  0
 95 98  1  0  0  0
 93 94  1  0  0  0
107108  1  0  0  0
107109  1  0  0  0
 88 89  1  0  0  0
114115  1  0  0  0
114116  1  0  0  0
 83 84  1  0  0  0
 77 78  1  0  0  0
118119  1  0  0  0
 72 73  1  0  0  0
125126  1  0  0  0
 67 68  1  0  0  0
  6  9  1  0  0  0
 12 13  1  0  0  0
 62 63  1  0  0  0
 62 64  1  0  0  0
 17 18  1  0  0  0
 55 56  1  0  0  0
 55 57  1  0  0  0
 22 23  1  0  0  0
 49 50  1  0  0  0
 27 28  1  0  0  0
 42 43  1  0  0  0
 38 40  1  0  0  0
100102  1  0  0  0
M  END
> <minimizedAffinity>
-4.46735

$$$$



126129  0  0  0  0  0  0  0  0999 V2000
   35.6820   -3.9258   14.6125 C   0  0  0  0  0  0  0  0  0  0  0  0
   34.7343   -3.1633   15.5092 C   0  0  0  0  0  0  0  0  0  0  0  0
   33.4204   -2.8772   15.0967 C   0  0  0  0  0  0  0  0  0  0  0  0
   32.5388   -2.2148   15.9542 C   0  0  0  0  0  0  0  0  0  0  0  0
   32.9621   -1.8111   17.2268 C   0  0  0  0  0  0  0  0  0  0  0  0
   32.0738   -1.1530   18.0766 O   0  0  0  0  0  0  0  0  0  0  0  0
   34.2732   -2.0774   17.6391 C   0  0  0  0  0  0  0  0  0  0  0  0
   35.1498   -2.7579   16.7875 C   0  0  0  0  0  0  0  0  0  0  0  0
   32.3701   -0.8122   18.9838 H   0  0  0  0  0  0  0  0  0  0  0  0
   36.9697   -4.2291   15.3330 C   0  0  0  0  0  0  0  0  0  0  0  0
   37.0131   -5.1278   16.2139 O   0  0  0  0  0  0  0  0  0  0  0  0
   38.1455   -3.4601   15.0453 N   0  0  0  0  0  0  0  0  0  0  0  0
   38.3364   -3.2517   14.0380 H   0  0  0  0  0  0  0  0  0  0  0  0
   38.8659   -2.6412   16.0341 C   0  0  0  0  0  0  0  0  0  0  0  0
   38.7159   -1.1828   15.6707 C   0  0  0  0  0  0  0  0  0  0  0  0
   39.7175   -0.4114   15.6872 O   0  0  0  0  0  0  0  0  0  0  0  0
   37.4227   -0.6726   15.3175 N   0  0  0  0  0  0  0  0  0  0  0  0
   36.6649   -1.3613   15.1055 H   0  0  0  0  0  0  0  0  0  0  0  0
   37.0316    0.7104   15.6136 C   0  0  0  0  0  0  0  0  0  0  0  0
   35.6632    0.9892   15.0399 C   0  0  0  0  0  0  0  0  0  0  0  0
   35.1392    0.1558   14.2543 O   0  0  0  0  0  0  0  0  0  0  0  0
   34.9330    2.1644   15.4375 N   0  0  0  0  0  0  0  0  0  0  0  0
   35.3806    2.7878   16.1508 H   0  0  0  0  0  0  0  0  0  0  0  0
   33.5097    2.3457   15.1066 C   0  0  0  0  0  0  0  0  0  0  0  0
   33.0796    3.7931   15.2343 C   0  0  0  0  0  0  0  0  0  0  0  0
   33.2704    4.4009   16.3228 O   0  0  0  0  0  0  0  0  0  0  0  0
   32.3299    4.4601   14.2007 N   0  0  0  0  0  0  0  0  0  0  0  0
   31.5608    5.0919   14.5276 H   0  0  0  0  0  0  0  0  0  0  0  0
   32.7371    4.6069   12.7912 C   0  0  0  0  0  0  0  0  0  0  0  0
   32.1577    3.5094   11.9272 C   0  0  0  0  0  0  0  0  0  0  0  0
   30.9842    3.1081   12.1252 O   0  0  0  0  0  0  0  0  0  0  0  0
   32.9646    2.8204   10.9624 N   0  0  0  0  0  0  0  0  0  0  0  0
   33.0232    3.2086    9.5639 C   0  0  0  0  0  0  0  0  0  0  0  0
   33.5928    2.0049    8.8276 C   0  0  0  0  0  0  0  0  0  0  0  0
   34.2637    1.1485    9.8995 C   0  0  0  0  0  0  0  0  0  0  0  0
   33.5797    1.5238   11.2152 C   0  0  0  0  0  0  0  0  0  0  0  0
   32.5465    0.5011   11.6013 C   0  0  0  0  0  0  0  0  0  0  0  0
   32.7342   -0.2686   12.7404 O   0  0  0  0  0  0  0  0  0  0  0  0
   31.5305    0.3205   10.8777 O   0  0  0  0  0  0  0  0  0  0  0  0
   32.0579   -0.9728   13.0096 H   0  0  0  0  0  0  0  0  0  0  0  0
   32.4190    6.0208   12.2636 C   0  0  0  0  0  0  0  0  0  0  0  0
   31.4319    6.9907   13.4533 S   0  0  0  0  0  0  0  0  0  0  0  0
   32.3622    6.9021   14.4993 H   0  0  0  0  0  0  0  0  0  0  0  0
   32.6455    1.4319   16.0023 C   0  0  0  0  0  0  0  0  0  0  0  0
   31.1775    1.5166   15.6718 C   0  0  0  0  0  0  0  0  0  0  0  0
   30.2096    2.1686   16.4013 C   0  0  0  0  0  0  0  0  0  0  0  0
   29.0132    1.9890   15.8091 N   0  0  0  0  0  0  0  0  0  0  0  0
   29.2840    1.2178   14.7343 C   0  0  0  0  0  0  0  0  0  0  0  0
   30.5900    0.9141   14.6229 N   0  0  0  0  0  0  0  0  0  0  0  0
   31.0379    0.3027   13.9046 H   0  0  0  0  0  0  0  0  0  0  0  0
   37.0184    0.9420   17.1395 C   0  0  0  0  0  0  0  0  0  0  0  0
   37.9112    2.1214   17.5618 C   0  0  0  0  0  0  0  0  0  0  0  0
   37.0861    3.2874   18.0318 C   0  0  0  0  0  0  0  0  0  0  0  0
   36.5432    4.0517   17.1900 O   0  0  0  0  0  0  0  0  0  0  0  0
   36.9207    3.5413   19.4283 N   0  0  0  0  0  0  0  0  0  0  0  0
   36.3117    4.3250   19.7535 H   0  0  0  0  0  0  0  0  0  0  0  0
   37.4099    2.9608   20.1443 H   0  0  0  0  0  0  0  0  0  0  0  0
   40.3473   -3.0592   16.2162 C   0  0  0  0  0  0  0  0  0  0  0  0
   40.9052   -3.8010   14.9895 C   0  0  0  0  0  0  0  0  0  0  0  0
   41.7112   -5.0583   15.3626 C   0  0  0  0  0  0  0  0  0  0  0  0
   41.8102   -6.1221   14.2492 C   0  0  0  0  0  0  0  0  0  0  0  0
   41.5981   -5.5603   12.9130 N   0  0  0  0  0  0  0  0  0  0  0  0
   42.4249   -4.9688   12.6592 H   0  0  0  0  0  0  0  0  0  0  0  0
   40.7579   -4.9464   12.9291 H   0  0  0  0  0  0  0  0  0  0  0  0
   35.6052   -5.8612   13.0139 C   0  0  0  0  0  0  0  0  0  0  0  0
   35.9149   -5.2382   11.9635 O   0  0  0  0  0  0  0  0  0  0  0  0
   35.0483   -5.1551   14.1255 N   0  0  0  0  0  0  0  0  0  0  0  0
   34.2971   -5.6153   14.6906 H   0  0  0  0  0  0  0  0  0  0  0  0
   36.0132   -7.2951   13.1860 C   0  0  0  0  0  0  0  0  0  0  0  0
   36.1116   -8.5943   10.9959 C   0  0  0  0  0  0  0  0  0  0  0  0
   35.5429   -8.6298    9.8660 O   0  0  0  0  0  0  0  0  0  0  0  0
   35.3807   -8.0792   12.1219 N   0  0  0  0  0  0  0  0  0  0  0  0
   34.3491   -7.9879   11.9999 H   0  0  0  0  0  0  0  0  0  0  0  0
   37.4971   -9.1806   11.1665 C   0  0  0  0  0  0  0  0  0  0  0  0
   39.4767   -7.6693   10.7012 C   0  0  0  0  0  0  0  0  0  0  0  0
   39.2988   -7.0470   11.7847 O   0  0  0  0  0  0  0  0  0  0  0  0
   38.4757   -8.5919   10.2405 N   0  0  0  0  0  0  0  0  0  0  0  0
   38.4934   -8.8672    9.2349 H   0  0  0  0  0  0  0  0  0  0  0  0
   40.7379   -7.4728    9.8938 C   0  0  0  0  0  0  0  0  0  0  0  0
   41.7564   -8.5475   10.2721 C   0  0  0  0  0  0  0  0  0  0  0  0
   40.9573   -5.0060    9.2672 C   0  0  0  0  0  0  0  0  0  0  0  0
   40.2343   -5.1675    8.2469 O   0  0  0  0  0  0  0  0  0  0  0  0
   41.3194   -6.1326   10.0844 N   0  0  0  0  0  0  0  0  0  0  0  0
   41.9904   -5.9512   10.8608 H   0  0  0  0  0  0  0  0  0  0  0  0
   41.4405   -3.6214    9.6223 C   0  0  0  0  0  0  0  0  0  0  0  0
   43.1110   -2.5521   11.2040 C   0  0  0  0  0  0  0  0  0  0  0  0
   42.8587   -2.1003   12.3558 O   0  0  0  0  0  0  0  0  0  0  0  0
   42.3876   -3.6977   10.7392 N   0  0  0  0  0  0  0  0  0  0  0  0
   42.2212   -4.4420   11.4465 H   0  0  0  0  0  0  0  0  0  0  0  0
   44.2789   -1.9573   10.4347 C   0  0  0  0  0  0  0  0  0  0  0  0
   43.2150    0.2574    9.9052 C   0  0  0  0  0  0  0  0  0  0  0  0
   43.7735    0.9704   10.7840 O   0  0  0  0  0  0  0  0  0  0  0  0
   43.8526   -0.9462    9.4647 N   0  0  0  0  0  0  0  0  0  0  0  0
   44.0435   -1.0653    8.4469 H   0  0  0  0  0  0  0  0  0  0  0  0
   41.0515    1.2559   10.4548 N   0  0  0  0  0  0  0  0  0  0  0  0
   41.8387    0.6207    9.3893 C   0  0  0  0  0  0  0  0  0  0  0  0
   40.0697    1.3761   10.1115 H   0  0  0  0  0  0  0  0  0  0  0  0
   40.9904    0.5949   11.2618 H   0  0  0  0  0  0  0  0  0  0  0  0
   41.9166    1.5175    8.1338 C   0  0  0  0  0  0  0  0  0  0  0  0
   43.2595    1.8886    7.9242 O   0  0  0  0  0  0  0  0  0  0  0  0
   41.3805    0.8195    6.8759 C   0  0  0  0  0  0  0  0  0  0  0  0
   43.2515    2.6496    7.2893 H   0  0  0  0  0  0  0  0  0  0  0  0
   45.1219   -3.0503    9.7549 C   0  0  0  0  0  0  0  0  0  0  0  0
   46.5972   -3.0658   10.1932 C   0  0  0  0  0  0  0  0  0  0  0  0
   47.4616   -2.1893    9.3223 C   0  0  0  0  0  0  0  0  0  0  0  0
   46.9543   -1.3467    8.5367 O   0  0  0  0  0  0  0  0  0  0  0  0
   48.8814   -2.3025    9.3984 N   0  0  0  0  0  0  0  0  0  0  0  0
   49.4902   -1.6896    8.8156 H   0  0  0  0  0  0  0  0  0  0  0  0
   49.3283   -2.9655   10.0738 H   0  0  0  0  0  0  0  0  0  0  0  0
   40.3180   -2.5785    9.9064 C   0  0  0  0  0  0  0  0  0  0  0  0
   39.2699   -2.9246   10.9847 C   0  0  0  0  0  0  0  0  0  0  0  0
   38.9660   -1.8504   12.0038 C   0  0  0  0  0  0  0  0  0  0  0  0
   37.7905   -1.7568   12.4380 O   0  0  0  0  0  0  0  0  0  0  0  0
   39.9424   -0.9088   12.4612 N   0  0  0  0  0  0  0  0  0  0  0  0
   40.8788   -0.8083   12.0184 H   0  0  0  0  0  0  0  0  0  0  0  0
   39.6819   -0.2063   13.1933 H   0  0  0  0  0  0  0  0  0  0  0  0
   37.4279  -10.7110   10.9833 C   0  0  0  0  0  0  0  0  0  0  0  0
   36.1051  -11.1713   11.1043 O   0  0  0  0  0  0  0  0  0  0  0  0
   35.6989  -11.1035   10.1976 H   0  0  0  0  0  0  0  0  0  0  0  0
   35.6279   -7.8401   14.5736 C   0  0  0  0  0  0  0  0  0  0  0  0
   36.7946   -8.5441   15.2068 C   0  0  0  0  0  0  0  0  0  0  0  0
   37.2794   -9.7913   14.8584 C   0  0  0  0  0  0  0  0  0  0  0  0
   38.2914  -10.1175   15.6889 N   0  0  0  0  0  0  0  0  0  0  0  0
   38.3970   -9.0563   16.5221 C   0  0  0  0  0  0  0  0  0  0  0  0
   37.5056   -8.0820   16.2460 N   0  0  0  0  0  0  0  0  0  0  0  0
   37.3796   -7.1842   16.7614 H   0  0  0  0  0  0  0  0  0  0  0  0
 95 96  1  0  0  0
 96 91  1  0  0  0
 91 92  2  0  0  0
 91 93  1  0  0  0
 93 90  1  0  0  0
 90103  1  0  0  0
103104  1  0  0  0
104105  1  0  0  0
105106  2  0  0  0
105107  1  0  0  0
 90 86  1  0  0  0
 86 87  2  0  0  0
 86 88  1  0  0  0
 88 85  1  0  0  0
 85110  1  0  0  0
110111  1  0  0  0
111112  1  0  0  0
112113  2  0  0  0
112114  1  0  0  0
 85 81  1  0  0  0
 81 82  2  0  0  0
 81 83  1  0  0  0
 83 79  1  0  0  0
 79 80  1  0  0  0
 79 75  1  0  0  0
 75 76  2  0  0  0
 75 77  1  0  0  0
 77 74  1  0  0  0
 74117  1  0  0  0
117118  1  0  0  0
 74 70  1  0  0  0
 70 71  2  0  0  0
 70 72  1  0  0  0
 72 69  1  0  0  0
 69120  1  0  0  0
120121  1  0  0  0
121122  2  0  0  0
122123  1  0  0  0
123124  2  0  0  0
124125  1  0  0  0
 69 65  1  0  0  0
 65 66  2  0  0  0
 65 67  1  0  0  0
 67  1  1  0  0  0
  1  2  1  0  0  0
  2  3  2  0  0  0
  3  4  1  0  0  0
  4  5  2  0  0  0
  5  6  1  0  0  0
  5  7  1  0  0  0
  7  8  2  0  0  0
  1 10  1  0  0  0
 10 11  2  0  0  0
 10 12  1  0  0  0
 12 14  1  0  0  0
 14 58  1  0  0  0
 58 59  1  0  0  0
 59 60  1  0  0  0
 60 61  1  0  0  0
 61 62  1  0  0  0
 14 15  1  0  0  0
 15 16  2  0  0  0
 15 17  1  0  0  0
 17 19  1  0  0  0
 19 51  1  0  0  0
 51 52  1  0  0  0
 52 53  1  0  0  0
 53 54  2  0  0  0
 53 55  1  0  0  0
 19 20  1  0  0  0
 20 21  2  0  0  0
 20 22  1  0  0  0
 22 24  1  0  0  0
 24 44  1  0  0  0
 44 45  1  0  0  0
 45 46  2  0  0  0
 46 47  1  0  0  0
 47 48  2  0  0  0
 48 49  1  0  0  0
 24 25  1  0  0  0
 25 26  2  0  0  0
 25 27  1  0  0  0
 27 29  1  0  0  0
 29 41  1  0  0  0
 41 42  1  0  0  0
 29 30  1  0  0  0
 30 31  2  0  0  0
 30 32  1  0  0  0
 32 33  1  0  0  0
 33 34  1  0  0  0
 34 35  1  0  0  0
 35 36  1  0  0  0
 36 37  1  0  0  0
 37 38  1  0  0  0
 37 39  2  0  0  0
 96 99  1  0  0  0
 99100  1  0  0  0
 99101  1  0  0  0
125121  1  0  0  0
  8  2  1  0  0  0
 49 45  1  0  0  0
 36 32  1  0  0  0
 95 97  1  0  0  0
 95 98  1  0  0  0
 93 94  1  0  0  0
107108  1  0  0  0
107109  1  0  0  0
 88 89  1  0  0  0
114115  1  0  0  0
114116  1  0  0  0
 83 84  1  0  0  0
 77 78  1  0  0  0
118119  1  0  0  0
 72 73  1  0  0  0
125126  1  0  0  0
 67 68  1  0  0  0
  6  9  1  0  0  0
 12 13  1  0  0  0
 62 63  1  0  0  0
 62 64  1  0  0  0
 17 18  1  0  0  0
 55 56  1  0  0  0
 55 57  1  0  0  0
 22 23  1  0  0  0
 49 50  1  0  0  0
 27 28  1  0  0  0
 42 43  1  0  0  0
 38 40  1  0  0  0
100102  1  0  0  0
M  END
> <minimizedAffinity>
-4.46043

$$$$



126129  0  0  0  0  0  0  0  0999 V2000
   38.1114   -2.1872   13.0807 C   0  0  0  0  0  0  0  0  0  0  0  0
   38.4837   -1.1980   14.1607 C   0  0  0  0  0  0  0  0  0  0  0  0
   38.9903   -1.6344   15.3982 C   0  0  0  0  0  0  0  0  0  0  0  0
   39.3769   -0.7083   16.3698 C   0  0  0  0  0  0  0  0  0  0  0  0
   39.2447    0.6649   16.1279 C   0  0  0  0  0  0  0  0  0  0  0  0
   39.6361    1.5816   17.1030 O   0  0  0  0  0  0  0  0  0  0  0  0
   38.7261    1.1075   14.9051 C   0  0  0  0  0  0  0  0  0  0  0  0
   38.3572    0.1802   13.9250 C   0  0  0  0  0  0  0  0  0  0  0  0
   39.5085    2.5778   16.9683 H   0  0  0  0  0  0  0  0  0  0  0  0
   39.0169   -2.0380   11.8860 C   0  0  0  0  0  0  0  0  0  0  0  0
   40.2525   -2.2574   11.9889 O   0  0  0  0  0  0  0  0  0  0  0  0
   38.4757   -1.6010   10.6319 N   0  0  0  0  0  0  0  0  0  0  0  0
   37.5624   -2.0207   10.3418 H   0  0  0  0  0  0  0  0  0  0  0  0
   38.8866   -0.3729    9.9318 C   0  0  0  0  0  0  0  0  0  0  0  0
   37.7610    0.6322    9.9960 C   0  0  0  0  0  0  0  0  0  0  0  0
   37.1438    0.9720    8.9460 O   0  0  0  0  0  0  0  0  0  0  0  0
   37.4027    1.2114   11.2583 N   0  0  0  0  0  0  0  0  0  0  0  0
   37.7751    0.7635   12.1268 H   0  0  0  0  0  0  0  0  0  0  0  0
   36.8817    2.5795   11.3596 C   0  0  0  0  0  0  0  0  0  0  0  0
   35.5913    2.5790   12.1434 C   0  0  0  0  0  0  0  0  0  0  0  0
   35.6105    2.8714   13.3684 O   0  0  0  0  0  0  0  0  0  0  0  0
   34.3396    2.3122   11.4845 N   0  0  0  0  0  0  0  0  0  0  0  0
   34.3684    2.1487   10.4500 H   0  0  0  0  0  0  0  0  0  0  0  0
   33.0456    2.5494   12.1458 C   0  0  0  0  0  0  0  0  0  0  0  0
   32.2076    1.2887   12.2167 C   0  0  0  0  0  0  0  0  0  0  0  0
   32.5134    0.3018   11.4934 O   0  0  0  0  0  0  0  0  0  0  0  0
   30.9864    1.2265   12.9782 N   0  0  0  0  0  0  0  0  0  0  0  0
   30.1937    0.7073   12.5314 H   0  0  0  0  0  0  0  0  0  0  0  0
   30.8463    1.5136   14.4176 C   0  0  0  0  0  0  0  0  0  0  0  0
   32.0855    1.1161   15.1877 C   0  0  0  0  0  0  0  0  0  0  0  0
   32.9952    1.9578   15.3910 O   0  0  0  0  0  0  0  0  0  0  0  0
   32.3080   -0.2438   15.5850 N   0  0  0  0  0  0  0  0  0  0  0  0
   31.9354   -0.7529   16.8935 C   0  0  0  0  0  0  0  0  0  0  0  0
   32.7241   -2.0419   17.0719 C   0  0  0  0  0  0  0  0  0  0  0  0
   33.1627   -2.4518   15.6676 C   0  0  0  0  0  0  0  0  0  0  0  0
   33.1590   -1.1642   14.8419 C   0  0  0  0  0  0  0  0  0  0  0  0
   34.5499   -0.6121   14.6903 C   0  0  0  0  0  0  0  0  0  0  0  0
   34.9985   -0.2145   13.4390 O   0  0  0  0  0  0  0  0  0  0  0  0
   35.3166   -0.5399   15.6881 O   0  0  0  0  0  0  0  0  0  0  0  0
   35.9365    0.1459   13.3130 H   0  0  0  0  0  0  0  0  0  0  0  0
   30.4332    2.9804   14.6557 C   0  0  0  0  0  0  0  0  0  0  0  0
   29.6518    3.2164   16.2879 S   0  0  0  0  0  0  0  0  0  0  0  0
   30.7448    2.7409   17.0272 H   0  0  0  0  0  0  0  0  0  0  0  0
   32.2853    3.6773   11.4151 C   0  0  0  0  0  0  0  0  0  0  0  0
   32.6469    3.7687    9.9548 C   0  0  0  0  0  0  0  0  0  0  0  0
   33.4754    4.7006    9.3725 C   0  0  0  0  0  0  0  0  0  0  0  0
   33.5243    4.4807    8.0445 N   0  0  0  0  0  0  0  0  0  0  0  0
   32.7100    3.4212    7.8504 C   0  0  0  0  0  0  0  0  0  0  0  0
   32.1622    2.9653    8.9915 N   0  0  0  0  0  0  0  0  0  0  0  0
   31.4728    2.1879    9.0954 H   0  0  0  0  0  0  0  0  0  0  0  0
   37.9169    3.4905   12.0529 C   0  0  0  0  0  0  0  0  0  0  0  0
   38.9628    4.0443   11.0702 C   0  0  0  0  0  0  0  0  0  0  0  0
   40.1847    3.1690   11.0257 C   0  0  0  0  0  0  0  0  0  0  0  0
   40.7987    3.0036    9.9379 O   0  0  0  0  0  0  0  0  0  0  0  0
   40.6500    2.5145   12.2077 N   0  0  0  0  0  0  0  0  0  0  0  0
   41.5236    1.9424   12.1848 H   0  0  0  0  0  0  0  0  0  0  0  0
   40.1246    2.5851   13.1064 H   0  0  0  0  0  0  0  0  0  0  0  0
   39.3761   -0.6256    8.4830 C   0  0  0  0  0  0  0  0  0  0  0  0
   39.0535   -2.0473    7.9917 C   0  0  0  0  0  0  0  0  0  0  0  0
   40.2263   -2.7046    7.2419 C   0  0  0  0  0  0  0  0  0  0  0  0
   40.9277   -3.8478    8.0050 C   0  0  0  0  0  0  0  0  0  0  0  0
   40.6305   -3.8328    9.4394 N   0  0  0  0  0  0  0  0  0  0  0  0
   39.6325   -4.1187    9.5814 H   0  0  0  0  0  0  0  0  0  0  0  0
   40.7406   -2.8634    9.8018 H   0  0  0  0  0  0  0  0  0  0  0  0
   36.9384   -4.2859   13.8066 C   0  0  0  0  0  0  0  0  0  0  0  0
   35.9760   -3.7505   14.4186 O   0  0  0  0  0  0  0  0  0  0  0  0
   38.1513   -3.5561   13.6045 N   0  0  0  0  0  0  0  0  0  0  0  0
   39.0633   -4.0660   13.6661 H   0  0  0  0  0  0  0  0  0  0  0  0
   36.7464   -5.5979   13.1038 C   0  0  0  0  0  0  0  0  0  0  0  0
   37.8074   -5.6264   10.7871 C   0  0  0  0  0  0  0  0  0  0  0  0
   38.0338   -4.8457    9.8173 O   0  0  0  0  0  0  0  0  0  0  0  0
   36.7030   -5.3401   11.6621 N   0  0  0  0  0  0  0  0  0  0  0  0
   36.0063   -4.6465   11.3141 H   0  0  0  0  0  0  0  0  0  0  0  0
   38.6266   -6.8892   10.9515 C   0  0  0  0  0  0  0  0  0  0  0  0
   41.0248   -7.6967   10.8265 C   0  0  0  0  0  0  0  0  0  0  0  0
   40.8420   -8.4927   11.7887 O   0  0  0  0  0  0  0  0  0  0  0  0
   40.0201   -6.7172   10.5155 N   0  0  0  0  0  0  0  0  0  0  0  0
   40.3008   -5.9009    9.9305 H   0  0  0  0  0  0  0  0  0  0  0  0
   42.2761   -7.7748    9.9844 C   0  0  0  0  0  0  0  0  0  0  0  0
   43.2913   -8.6914   10.6660 C   0  0  0  0  0  0  0  0  0  0  0  0
   43.1817   -5.5328   10.8087 C   0  0  0  0  0  0  0  0  0  0  0  0
   42.8071   -5.7782   11.9873 O   0  0  0  0  0  0  0  0  0  0  0  0
   42.8707   -6.4484    9.7441 N   0  0  0  0  0  0  0  0  0  0  0  0
   43.1275   -6.1492    8.7796 H   0  0  0  0  0  0  0  0  0  0  0  0
   43.9571   -4.2700   10.5246 C   0  0  0  0  0  0  0  0  0  0  0  0
   43.4646   -1.7838   10.4152 C   0  0  0  0  0  0  0  0  0  0  0  0
   42.6729   -1.2185    9.6101 O   0  0  0  0  0  0  0  0  0  0  0  0
   43.1485   -3.1002   10.8829 N   0  0  0  0  0  0  0  0  0  0  0  0
   42.1463   -3.2711   11.1023 H   0  0  0  0  0  0  0  0  0  0  0  0
   44.6274   -0.9779   10.9704 C   0  0  0  0  0  0  0  0  0  0  0  0
   44.2189   -0.8370   13.4463 C   0  0  0  0  0  0  0  0  0  0  0  0
   45.2300   -1.4692   13.8590 O   0  0  0  0  0  0  0  0  0  0  0  0
   44.2570   -0.2089   12.1605 N   0  0  0  0  0  0  0  0  0  0  0  0
   44.0578    0.8123   12.0987 H   0  0  0  0  0  0  0  0  0  0  0  0
   41.8918   -0.0916   13.5407 N   0  0  0  0  0  0  0  0  0  0  0  0
   42.9431   -0.8219   14.2617 C   0  0  0  0  0  0  0  0  0  0  0  0
   41.0686    0.0151   14.1788 H   0  0  0  0  0  0  0  0  0  0  0  0
   42.2311    0.8785   13.3516 H   0  0  0  0  0  0  0  0  0  0  0  0
   42.4850   -2.2495   14.6338 C   0  0  0  0  0  0  0  0  0  0  0  0
   43.1279   -3.1688   13.7815 O   0  0  0  0  0  0  0  0  0  0  0  0
   42.7967   -2.6074   16.0939 C   0  0  0  0  0  0  0  0  0  0  0  0
   42.6379   -4.0265   13.8620 H   0  0  0  0  0  0  0  0  0  0  0  0
   45.2451   -0.0655    9.8966 C   0  0  0  0  0  0  0  0  0  0  0  0
   46.5134   -0.6404    9.2410 C   0  0  0  0  0  0  0  0  0  0  0  0
   47.2152    0.3706    8.3698 C   0  0  0  0  0  0  0  0  0  0  0  0
   48.3856    0.1712    7.9514 O   0  0  0  0  0  0  0  0  0  0  0  0
   46.5384    1.5696    7.9973 N   0  0  0  0  0  0  0  0  0  0  0  0
   47.0054    2.2676    7.3803 H   0  0  0  0  0  0  0  0  0  0  0  0
   45.5501    1.7395    8.2973 H   0  0  0  0  0  0  0  0  0  0  0  0
   44.5161   -4.1454    9.0753 C   0  0  0  0  0  0  0  0  0  0  0  0
   46.0290   -4.3647    8.8660 C   0  0  0  0  0  0  0  0  0  0  0  0
   46.7161   -5.3092    9.8254 C   0  0  0  0  0  0  0  0  0  0  0  0
   47.3996   -4.8177   10.7583 O   0  0  0  0  0  0  0  0  0  0  0  0
   46.6614   -6.7336    9.6931 N   0  0  0  0  0  0  0  0  0  0  0  0
   46.2714   -7.2066    8.8522 H   0  0  0  0  0  0  0  0  0  0  0  0
   47.1311   -7.3389   10.4074 H   0  0  0  0  0  0  0  0  0  0  0  0
   37.9517   -8.0381   10.1736 C   0  0  0  0  0  0  0  0  0  0  0  0
   36.6476   -7.6836    9.7867 O   0  0  0  0  0  0  0  0  0  0  0  0
   36.7303   -7.2177    8.9104 H   0  0  0  0  0  0  0  0  0  0  0  0
   35.4692   -6.3195   13.5719 C   0  0  0  0  0  0  0  0  0  0  0  0
   35.7635   -7.7569   13.8955 C   0  0  0  0  0  0  0  0  0  0  0  0
   34.9054   -8.6426   14.5212 C   0  0  0  0  0  0  0  0  0  0  0  0
   35.5407   -9.8195   14.6984 N   0  0  0  0  0  0  0  0  0  0  0  0
   36.7715   -9.6189   14.1729 C   0  0  0  0  0  0  0  0  0  0  0  0
   36.9311   -8.3772   13.6700 N   0  0  0  0  0  0  0  0  0  0  0  0
   37.7941   -7.9831   13.2372 H   0  0  0  0  0  0  0  0  0  0  0  0
 95 96  1  0  0  0
 96 91  1  0  0  0
 91 92  2  0  0  0
 91 93  1  0  0  0
 93 90  1  0  0  0
 90103  1  0  0  0
103104  1  0  0  0
104105  1  0  0  0
105106  2  0  0  0
105107  1  0  0  0
 90 86  1  0  0  0
 86 87  2  0  0  0
 86 88  1  0  0  0
 88 85  1  0  0  0
 85110  1  0  0  0
110111  1  0  0  0
111112  1  0  0  0
112113  2  0  0  0
112114  1  0  0  0
 85 81  1  0  0  0
 81 82  2  0  0  0
 81 83  1  0  0  0
 83 79  1  0  0  0
 79 80  1  0  0  0
 79 75  1  0  0  0
 75 76  2  0  0  0
 75 77  1  0  0  0
 77 74  1  0  0  0
 74117  1  0  0  0
117118  1  0  0  0
 74 70  1  0  0  0
 70 71  2  0  0  0
 70 72  1  0  0  0
 72 69  1  0  0  0
 69120  1  0  0  0
120121  1  0  0  0
121122  2  0  0  0
122123  1  0  0  0
123124  2  0  0  0
124125  1  0  0  0
 69 65  1  0  0  0
 65 66  2  0  0  0
 65 67  1  0  0  0
 67  1  1  0  0  0
  1  2  1  0  0  0
  2  3  2  0  0  0
  3  4  1  0  0  0
  4  5  2  0  0  0
  5  6  1  0  0  0
  5  7  1  0  0  0
  7  8  2  0  0  0
  1 10  1  0  0  0
 10 11  2  0  0  0
 10 12  1  0  0  0
 12 14  1  0  0  0
 14 58  1  0  0  0
 58 59  1  0  0  0
 59 60  1  0  0  0
 60 61  1  0  0  0
 61 62  1  0  0  0
 14 15  1  0  0  0
 15 16  2  0  0  0
 15 17  1  0  0  0
 17 19  1  0  0  0
 19 51  1  0  0  0
 51 52  1  0  0  0
 52 53  1  0  0  0
 53 54  2  0  0  0
 53 55  1  0  0  0
 19 20  1  0  0  0
 20 21  2  0  0  0
 20 22  1  0  0  0
 22 24  1  0  0  0
 24 44  1  0  0  0
 44 45  1  0  0  0
 45 46  2  0  0  0
 46 47  1  0  0  0
 47 48  2  0  0  0
 48 49  1  0  0  0
 24 25  1  0  0  0
 25 26  2  0  0  0
 25 27  1  0  0  0
 27 29  1  0  0  0
 29 41  1  0  0  0
 41 42  1  0  0  0
 29 30  1  0  0  0
 30 31  2  0  0  0
 30 32  1  0  0  0
 32 33  1  0  0  0
 33 34  1  0  0  0
 34 35  1  0  0  0
 35 36  1  0  0  0
 36 37  1  0  0  0
 37 38  1  0  0  0
 37 39  2  0  0  0
 96 99  1  0  0  0
 99100  1  0  0  0
 99101  1  0  0  0
125121  1  0  0  0
  8  2  1  0  0  0
 49 45  1  0  0  0
 36 32  1  0  0  0
 95 97  1  0  0  0
 95 98  1  0  0  0
 93 94  1  0  0  0
107108  1  0  0  0
107109  1  0  0  0
 88 89  1  0  0  0
114115  1  0  0  0
114116  1  0  0  0
 83 84  1  0  0  0
 77 78  1  0  0  0
118119  1  0  0  0
 72 73  1  0  0  0
125126  1  0  0  0
 67 68  1  0  0  0
  6  9  1  0  0  0
 12 13  1  0  0  0
 62 63  1  0  0  0
 62 64  1  0  0  0
 17 18  1  0  0  0
 55 56  1  0  0  0
 55 57  1  0  0  0
 22 23  1  0  0  0
 49 50  1  0  0  0
 27 28  1  0  0  0
 42 43  1  0  0  0
 38 40  1  0  0  0
100102  1  0  0  0
M  END
> <minimizedAffinity>
-4.40970

$$$$



126129  0  0  0  0  0  0  0  0999 V2000
    2.2267    3.4973    2.3572 C   0  0  0  0  0  0  0  0  0  0  0  0
    1.5781    2.1516    2.1294 C   0  0  0  0  0  0  0  0  0  0  0  0
    0.2911    2.0539    1.5704 C   0  0  0  0  0  0  0  0  0  0  0  0
   -0.2773    0.8028    1.3193 C   0  0  0  0  0  0  0  0  0  0  0  0
    0.4220   -0.3673    1.6411 C   0  0  0  0  0  0  0  0  0  0  0  0
   -0.1528   -1.6114    1.3841 O   0  0  0  0  0  0  0  0  0  0  0  0
    1.6968   -0.2789    2.2129 C   0  0  0  0  0  0  0  0  0  0  0  0
    2.2736    0.9739    2.4462 C   0  0  0  0  0  0  0  0  0  0  0  0
    0.3149   -2.4705    1.6489 H   0  0  0  0  0  0  0  0  0  0  0  0
    2.7315    3.6132    3.7717 C   0  0  0  0  0  0  0  0  0  0  0  0
    3.9604    3.5033    4.0230 O   0  0  0  0  0  0  0  0  0  0  0  0
    1.8019    3.8071    4.8464 N   0  0  0  0  0  0  0  0  0  0  0  0
    1.0292    4.4929    4.6821 H   0  0  0  0  0  0  0  0  0  0  0  0
    1.6239    2.8731    5.9703 C   0  0  0  0  0  0  0  0  0  0  0  0
    1.3676    3.6623    7.2324 C   0  0  0  0  0  0  0  0  0  0  0  0
    0.2852    4.2984    7.3824 O   0  0  0  0  0  0  0  0  0  0  0  0
    2.3686    3.6969    8.2591 N   0  0  0  0  0  0  0  0  0  0  0  0
    3.1486    3.0023    8.2071 H   0  0  0  0  0  0  0  0  0  0  0  0
    2.5496    4.8704    9.1212 C   0  0  0  0  0  0  0  0  0  0  0  0
    2.1759    4.5239   10.5424 C   0  0  0  0  0  0  0  0  0  0  0  0
    0.9618    4.3850   10.8474 O   0  0  0  0  0  0  0  0  0  0  0  0
    3.1991    4.2882   11.5271 N   0  0  0  0  0  0  0  0  0  0  0  0
    4.1947    4.3422   11.2055 H   0  0  0  0  0  0  0  0  0  0  0  0
    2.8926    3.7049   12.8440 C   0  0  0  0  0  0  0  0  0  0  0  0
    3.8185    4.2285   13.9234 C   0  0  0  0  0  0  0  0  0  0  0  0
    4.8948    4.7967   13.5924 O   0  0  0  0  0  0  0  0  0  0  0  0
    3.5812    3.9739   15.3212 N   0  0  0  0  0  0  0  0  0  0  0  0
    4.4277    3.7497   15.8963 H   0  0  0  0  0  0  0  0  0  0  0  0
    2.3589    4.3188   16.0703 C   0  0  0  0  0  0  0  0  0  0  0  0
    2.1434    3.3884   17.2427 C   0  0  0  0  0  0  0  0  0  0  0  0
    1.5452    3.7986   18.2680 O   0  0  0  0  0  0  0  0  0  0  0  0
    2.7221    2.0764   17.2650 N   0  0  0  0  0  0  0  0  0  0  0  0
    2.0033    0.8912   16.8306 C   0  0  0  0  0  0  0  0  0  0  0  0
    2.7615   -0.2881   17.4219 C   0  0  0  0  0  0  0  0  0  0  0  0
    4.1425    0.2531   17.7855 C   0  0  0  0  0  0  0  0  0  0  0  0
    3.9603    1.7611   17.9659 C   0  0  0  0  0  0  0  0  0  0  0  0
    3.8657    2.1265   19.4219 C   0  0  0  0  0  0  0  0  0  0  0  0
    2.7718    1.7074   20.1655 O   0  0  0  0  0  0  0  0  0  0  0  0
    4.7585    2.8366   19.9577 O   0  0  0  0  0  0  0  0  0  0  0  0
    2.6817    1.9553   21.1433 H   0  0  0  0  0  0  0  0  0  0  0  0
    2.3537    5.8076   16.4734 C   0  0  0  0  0  0  0  0  0  0  0  0
    3.9506    6.3308   17.1851 S   0  0  0  0  0  0  0  0  0  0  0  0
    4.7155    5.9841   16.0617 H   0  0  0  0  0  0  0  0  0  0  0  0
    2.9580    2.1645   12.7601 C   0  0  0  0  0  0  0  0  0  0  0  0
    1.6563    1.5073   13.1411 C   0  0  0  0  0  0  0  0  0  0  0  0
    0.5286    2.1371   13.6162 C   0  0  0  0  0  0  0  0  0  0  0  0
   -0.4162    1.2137   13.8792 N   0  0  0  0  0  0  0  0  0  0  0  0
    0.1688    0.0376   13.5665 C   0  0  0  0  0  0  0  0  0  0  0  0
    1.4279    0.1824   13.1147 N   0  0  0  0  0  0  0  0  0  0  0  0
    2.0955   -0.5755   12.8494 H   0  0  0  0  0  0  0  0  0  0  0  0
    4.0164    5.3476    9.0654 C   0  0  0  0  0  0  0  0  0  0  0  0
    4.9566    4.2860    8.4695 C   0  0  0  0  0  0  0  0  0  0  0  0
    5.2246    4.5520    7.0140 C   0  0  0  0  0  0  0  0  0  0  0  0
    4.6182    5.4863    6.4248 O   0  0  0  0  0  0  0  0  0  0  0  0
    6.1563    3.7458    6.2901 N   0  0  0  0  0  0  0  0  0  0  0  0
    6.3741    3.9593    5.2911 H   0  0  0  0  0  0  0  0  0  0  0  0
    6.6247    2.9280    6.7380 H   0  0  0  0  0  0  0  0  0  0  0  0
    2.7933    1.8676    6.1252 C   0  0  0  0  0  0  0  0  0  0  0  0
    2.3307    0.4045    6.0157 C   0  0  0  0  0  0  0  0  0  0  0  0
    0.8120    0.2685    5.8040 C   0  0  0  0  0  0  0  0  0  0  0  0
    0.0504   -0.4020    6.9665 C   0  0  0  0  0  0  0  0  0  0  0  0
   -0.0933    0.4790    8.1281 N   0  0  0  0  0  0  0  0  0  0  0  0
   -0.7739    1.2404    7.8935 H   0  0  0  0  0  0  0  0  0  0  0  0
    0.8246    0.9230    8.3367 H   0  0  0  0  0  0  0  0  0  0  0  0
    3.2096    4.7583    0.4204 C   0  0  0  0  0  0  0  0  0  0  0  0
    2.1585    4.8849   -0.2627 O   0  0  0  0  0  0  0  0  0  0  0  0
    3.3089    3.7139    1.3919 N   0  0  0  0  0  0  0  0  0  0  0  0
    4.2271    3.2277    1.5182 H   0  0  0  0  0  0  0  0  0  0  0  0
    4.2689    5.8204    0.3749 C   0  0  0  0  0  0  0  0  0  0  0  0
    4.5273    6.9843    2.6271 C   0  0  0  0  0  0  0  0  0  0  0  0
    3.8221    7.3585    3.6090 O   0  0  0  0  0  0  0  0  0  0  0  0
    3.9067    6.8660    1.3355 N   0  0  0  0  0  0  0  0  0  0  0  0
    2.9754    7.3226    1.2273 H   0  0  0  0  0  0  0  0  0  0  0  0
    6.0158    6.7682    2.8008 C   0  0  0  0  0  0  0  0  0  0  0  0
    7.6072    6.1656    4.6779 C   0  0  0  0  0  0  0  0  0  0  0  0
    8.0550    5.1813    4.0271 O   0  0  0  0  0  0  0  0  0  0  0  0
    6.4371    6.8542    4.2068 N   0  0  0  0  0  0  0  0  0  0  0  0
    5.9203    7.4554    4.8842 H   0  0  0  0  0  0  0  0  0  0  0  0
    8.2981    6.6421    5.9336 C   0  0  0  0  0  0  0  0  0  0  0  0
    7.4364    7.7035    6.6164 C   0  0  0  0  0  0  0  0  0  0  0  0
   10.8012    6.7916    6.4212 C   0  0  0  0  0  0  0  0  0  0  0  0
   10.6738    6.0880    7.4597 O   0  0  0  0  0  0  0  0  0  0  0  0
    9.6431    7.1782    5.6613 N   0  0  0  0  0  0  0  0  0  0  0  0
    9.8022    7.8326    4.8661 H   0  0  0  0  0  0  0  0  0  0  0  0
   12.1785    7.2259    5.9839 C   0  0  0  0  0  0  0  0  0  0  0  0
   14.4443    7.5887    7.0659 C   0  0  0  0  0  0  0  0  0  0  0  0
   14.9749    8.7058    7.3207 O   0  0  0  0  0  0  0  0  0  0  0  0
   13.0205    7.4642    7.1607 N   0  0  0  0  0  0  0  0  0  0  0  0
   12.5783    7.9570    7.9629 H   0  0  0  0  0  0  0  0  0  0  0  0
   15.3537    6.3946    6.8283 C   0  0  0  0  0  0  0  0  0  0  0  0
   14.8462    5.5257    9.1314 C   0  0  0  0  0  0  0  0  0  0  0  0
   13.7814    4.8950    8.8845 O   0  0  0  0  0  0  0  0  0  0  0  0
   15.7852    5.7630    8.0773 N   0  0  0  0  0  0  0  0  0  0  0  0
   16.7677    5.4386    8.2027 H   0  0  0  0  0  0  0  0  0  0  0  0
   15.7967    7.3898   10.3968 N   0  0  0  0  0  0  0  0  0  0  0  0
   15.0861    6.1088   10.5080 C   0  0  0  0  0  0  0  0  0  0  0  0
   16.0628    7.7032   11.3598 H   0  0  0  0  0  0  0  0  0  0  0  0
   16.6976    7.2274    9.8929 H   0  0  0  0  0  0  0  0  0  0  0  0
   13.7698    6.2606   11.3024 C   0  0  0  0  0  0  0  0  0  0  0  0
   13.2601    4.9778   11.5848 O   0  0  0  0  0  0  0  0  0  0  0  0
   13.9593    7.0320   12.6162 C   0  0  0  0  0  0  0  0  0  0  0  0
   12.3148    5.0980   11.8574 H   0  0  0  0  0  0  0  0  0  0  0  0
   16.5639    6.7717    5.9563 C   0  0  0  0  0  0  0  0  0  0  0  0
   17.9190    6.6337    6.6732 C   0  0  0  0  0  0  0  0  0  0  0  0
   18.1679    7.7580    7.6467 C   0  0  0  0  0  0  0  0  0  0  0  0
   18.4027    7.5291    8.8620 O   0  0  0  0  0  0  0  0  0  0  0  0
   18.1536    9.1069    7.1833 N   0  0  0  0  0  0  0  0  0  0  0  0
   18.3426    9.8918    7.8421 H   0  0  0  0  0  0  0  0  0  0  0  0
   18.0025    9.3212    6.1699 H   0  0  0  0  0  0  0  0  0  0  0  0
   12.2139    8.4424    5.0107 C   0  0  0  0  0  0  0  0  0  0  0  0
   13.1676    8.3683    3.8000 C   0  0  0  0  0  0  0  0  0  0  0  0
   12.5624    8.6443    2.4426 C   0  0  0  0  0  0  0  0  0  0  0  0
   11.3211    8.5062    2.3047 O   0  0  0  0  0  0  0  0  0  0  0  0
   13.3423    9.0102    1.2993 N   0  0  0  0  0  0  0  0  0  0  0  0
   14.3821    8.9680    1.2898 H   0  0  0  0  0  0  0  0  0  0  0  0
   12.8640    9.2207    0.3915 H   0  0  0  0  0  0  0  0  0  0  0  0
    6.7825    7.7936    1.9400 C   0  0  0  0  0  0  0  0  0  0  0  0
    5.9629    8.8887    1.6155 O   0  0  0  0  0  0  0  0  0  0  0  0
    6.0518    9.5391    2.3643 H   0  0  0  0  0  0  0  0  0  0  0  0
    4.4349    6.4068   -1.0392 C   0  0  0  0  0  0  0  0  0  0  0  0
    5.8720    6.3401   -1.4728 C   0  0  0  0  0  0  0  0  0  0  0  0
    6.8369    5.4896   -0.9651 C   0  0  0  0  0  0  0  0  0  0  0  0
    8.0193    5.7647   -1.5536 N   0  0  0  0  0  0  0  0  0  0  0  0
    7.7416    6.7772   -2.4076 C   0  0  0  0  0  0  0  0  0  0  0  0
    6.4426    7.1407   -2.3853 N   0  0  0  0  0  0  0  0  0  0  0  0
    5.9973    7.9070   -2.9348 H   0  0  0  0  0  0  0  0  0  0  0  0
 95 96  1  0  0  0
 96 91  1  0  0  0
 91 92  2  0  0  0
 91 93  1  0  0  0
 93 90  1  0  0  0
 90103  1  0  0  0
103104  1  0  0  0
104105  1  0  0  0
105106  2  0  0  0
105107  1  0  0  0
 90 86  1  0  0  0
 86 87  2  0  0  0
 86 88  1  0  0  0
 88 85  1  0  0  0
 85110  1  0  0  0
110111  1  0  0  0
111112  1  0  0  0
112113  2  0  0  0
112114  1  0  0  0
 85 81  1  0  0  0
 81 82  2  0  0  0
 81 83  1  0  0  0
 83 79  1  0  0  0
 79 80  1  0  0  0
 79 75  1  0  0  0
 75 76  2  0  0  0
 75 77  1  0  0  0
 77 74  1  0  0  0
 74117  1  0  0  0
117118  1  0  0  0
 74 70  1  0  0  0
 70 71  2  0  0  0
 70 72  1  0  0  0
 72 69  1  0  0  0
 69120  1  0  0  0
120121  1  0  0  0
121122  2  0  0  0
122123  1  0  0  0
123124  2  0  0  0
124125  1  0  0  0
 69 65  1  0  0  0
 65 66  2  0  0  0
 65 67  1  0  0  0
 67  1  1  0  0  0
  1  2  1  0  0  0
  2  3  2  0  0  0
  3  4  1  0  0  0
  4  5  2  0  0  0
  5  6  1  0  0  0
  5  7  1  0  0  0
  7  8  2  0  0  0
  1 10  1  0  0  0
 10 11  2  0  0  0
 10 12  1  0  0  0
 12 14  1  0  0  0
 14 58  1  0  0  0
 58 59  1  0  0  0
 59 60  1  0  0  0
 60 61  1  0  0  0
 61 62  1  0  0  0
 14 15  1  0  0  0
 15 16  2  0  0  0
 15 17  1  0  0  0
 17 19  1  0  0  0
 19 51  1  0  0  0
 51 52  1  0  0  0
 52 53  1  0  0  0
 53 54  2  0  0  0
 53 55  1  0  0  0
 19 20  1  0  0  0
 20 21  2  0  0  0
 20 22  1  0  0  0
 22 24  1  0  0  0
 24 44  1  0  0  0
 44 45  1  0  0  0
 45 46  2  0  0  0
 46 47  1  0  0  0
 47 48  2  0  0  0
 48 49  1  0  0  0
 24 25  1  0  0  0
 25 26  2  0  0  0
 25 27  1  0  0  0
 27 29  1  0  0  0
 29 41  1  0  0  0
 41 42  1  0  0  0
 29 30  1  0  0  0
 30 31  2  0  0  0
 30 32  1  0  0  0
 32 33  1  0  0  0
 33 34  1  0  0  0
 34 35  1  0  0  0
 35 36  1  0  0  0
 36 37  1  0  0  0
 37 38  1  0  0  0
 37 39  2  0  0  0
 96 99  1  0  0  0
 99100  1  0  0  0
 99101  1  0  0  0
125121  1  0  0  0
  8  2  1  0  0  0
 49 45  1  0  0  0
 36 32  1  0  0  0
 95 97  1  0  0  0
 95 98  1  0  0  0
 93 94  1  0  0  0
107108  1  0  0  0
107109  1  0  0  0
 88 89  1  0  0  0
114115  1  0  0  0
114116  1  0  0  0
 83 84  1  0  0  0
 77 78  1  0  0  0
118119  1  0  0  0
 72 73  1  0  0  0
125126  1  0  0  0
 67 68  1  0  0  0
  6  9  1  0  0  0
 12 13  1  0  0  0
 62 63  1  0  0  0
 62 64  1  0  0  0
 17 18  1  0  0  0
 55 56  1  0  0  0
 55 57  1  0  0  0
 22 23  1  0  0  0
 49 50  1  0  0  0
 27 28  1  0  0  0
 42 43  1  0  0  0
 38 40  1  0  0  0
100102  1  0  0  0
M  END
> <minimizedAffinity>
-4.40334

$$$$



126129  0  0  0  0  0  0  0  0999 V2000
    2.8546    2.7129    1.7367 C   0  0  0  0  0  0  0  0  0  0  0  0
    2.3599    1.5216    2.5238 C   0  0  0  0  0  0  0  0  0  0  0  0
    2.3976    1.5170    3.9299 C   0  0  0  0  0  0  0  0  0  0  0  0
    1.8919    0.4301    4.6469 C   0  0  0  0  0  0  0  0  0  0  0  0
    1.3603   -0.6754    3.9708 C   0  0  0  0  0  0  0  0  0  0  0  0
    0.8553   -1.7543    4.6956 O   0  0  0  0  0  0  0  0  0  0  0  0
    1.3339   -0.6860    2.5711 C   0  0  0  0  0  0  0  0  0  0  0  0
    1.8226    0.4109    1.8538 C   0  0  0  0  0  0  0  0  0  0  0  0
    0.5069   -2.5833    4.2285 H   0  0  0  0  0  0  0  0  0  0  0  0
    1.7219    3.6580    1.4318 C   0  0  0  0  0  0  0  0  0  0  0  0
    0.6236    3.5567    2.0392 O   0  0  0  0  0  0  0  0  0  0  0  0
    1.8795    4.6535    0.4116 N   0  0  0  0  0  0  0  0  0  0  0  0
    2.7916    5.1654    0.3907 H   0  0  0  0  0  0  0  0  0  0  0  0
    1.0493    4.7398   -0.8012 C   0  0  0  0  0  0  0  0  0  0  0  0
    1.7796    5.5545   -1.8425 C   0  0  0  0  0  0  0  0  0  0  0  0
    1.1662    6.0002   -2.8543 O   0  0  0  0  0  0  0  0  0  0  0  0
    3.1819    5.8102   -1.6830 N   0  0  0  0  0  0  0  0  0  0  0  0
    3.6122    5.6192   -0.7493 H   0  0  0  0  0  0  0  0  0  0  0  0
    4.0774    5.9477   -2.8374 C   0  0  0  0  0  0  0  0  0  0  0  0
    5.2991    6.7435   -2.4455 C   0  0  0  0  0  0  0  0  0  0  0  0
    5.2371    7.5306   -1.4642 O   0  0  0  0  0  0  0  0  0  0  0  0
    6.5440    6.5571   -3.1438 N   0  0  0  0  0  0  0  0  0  0  0  0
    6.5634    5.8361   -3.9038 H   0  0  0  0  0  0  0  0  0  0  0  0
    7.8103    7.1144   -2.6400 C   0  0  0  0  0  0  0  0  0  0  0  0
    8.7754    7.4314   -3.7645 C   0  0  0  0  0  0  0  0  0  0  0  0
    8.4825    7.0943   -4.9440 O   0  0  0  0  0  0  0  0  0  0  0  0
   10.0841    7.9794   -3.5147 N   0  0  0  0  0  0  0  0  0  0  0  0
   10.8621    7.5931   -4.1005 H   0  0  0  0  0  0  0  0  0  0  0  0
   10.3773    9.2265   -2.7847 C   0  0  0  0  0  0  0  0  0  0  0  0
   11.6571    9.8684   -3.2711 C   0  0  0  0  0  0  0  0  0  0  0  0
   11.6092   10.8830   -4.0098 O   0  0  0  0  0  0  0  0  0  0  0  0
   12.9335    9.2674   -3.0131 N   0  0  0  0  0  0  0  0  0  0  0  0
   13.7633    9.6374   -1.8798 C   0  0  0  0  0  0  0  0  0  0  0  0
   15.1603    9.1345   -2.2129 C   0  0  0  0  0  0  0  0  0  0  0  0
   14.9698    8.0949   -3.3153 C   0  0  0  0  0  0  0  0  0  0  0  0
   13.6398    8.4435   -3.9857 C   0  0  0  0  0  0  0  0  0  0  0  0
   13.8595    9.1927   -5.2713 C   0  0  0  0  0  0  0  0  0  0  0  0
   12.9095    9.1193   -6.2799 O   0  0  0  0  0  0  0  0  0  0  0  0
   14.9152    9.8586   -5.4457 O   0  0  0  0  0  0  0  0  0  0  0  0
   13.0453    9.6040   -7.1587 H   0  0  0  0  0  0  0  0  0  0  0  0
    9.1712   10.1873   -2.8160 C   0  0  0  0  0  0  0  0  0  0  0  0
    8.9936   11.1157   -1.2549 S   0  0  0  0  0  0  0  0  0  0  0  0
   10.2676   11.7006   -1.3039 H   0  0  0  0  0  0  0  0  0  0  0  0
    8.4445    6.1362   -1.6276 C   0  0  0  0  0  0  0  0  0  0  0  0
    8.4721    6.6894   -0.2260 C   0  0  0  0  0  0  0  0  0  0  0  0
    7.5947    6.3892    0.7909 C   0  0  0  0  0  0  0  0  0  0  0  0
    7.9201    7.1079    1.8827 N   0  0  0  0  0  0  0  0  0  0  0  0
    8.9867    7.8401    1.4958 C   0  0  0  0  0  0  0  0  0  0  0  0
    9.3467    7.6081    0.2204 N   0  0  0  0  0  0  0  0  0  0  0  0
   10.1091    8.0779   -0.3168 H   0  0  0  0  0  0  0  0  0  0  0  0
    4.5003    4.5541   -3.3486 C   0  0  0  0  0  0  0  0  0  0  0  0
    3.9736    4.2636   -4.7644 C   0  0  0  0  0  0  0  0  0  0  0  0
    4.9993    4.6094   -5.8082 C   0  0  0  0  0  0  0  0  0  0  0  0
    5.5086    5.7616   -5.8299 O   0  0  0  0  0  0  0  0  0  0  0  0
    5.3945    3.6424   -6.7833 N   0  0  0  0  0  0  0  0  0  0  0  0
    6.1387    3.8695   -7.4800 H   0  0  0  0  0  0  0  0  0  0  0  0
    4.9433    2.7025   -6.8253 H   0  0  0  0  0  0  0  0  0  0  0  0
   -0.3824    5.2679   -0.5298 C   0  0  0  0  0  0  0  0  0  0  0  0
   -0.3845    6.5742    0.2827 C   0  0  0  0  0  0  0  0  0  0  0  0
   -1.7010    6.8050    1.0464 C   0  0  0  0  0  0  0  0  0  0  0  0
   -1.9213    5.8763    2.2590 C   0  0  0  0  0  0  0  0  0  0  0  0
   -0.8183    5.9353    3.2213 N   0  0  0  0  0  0  0  0  0  0  0  0
   -0.8433    6.8625    3.7085 H   0  0  0  0  0  0  0  0  0  0  0  0
    0.0858    5.8660    2.7105 H   0  0  0  0  0  0  0  0  0  0  0  0
    4.2916    4.7363    2.1219 C   0  0  0  0  0  0  0  0  0  0  0  0
    4.4888    5.0478    0.9171 O   0  0  0  0  0  0  0  0  0  0  0  0
    3.9296    3.3958    2.4632 N   0  0  0  0  0  0  0  0  0  0  0  0
    4.3149    2.9772    3.3418 H   0  0  0  0  0  0  0  0  0  0  0  0
    4.2234    5.8046    3.1736 C   0  0  0  0  0  0  0  0  0  0  0  0
    5.6382    4.9662    5.1202 C   0  0  0  0  0  0  0  0  0  0  0  0
    5.8230    3.9143    5.7991 O   0  0  0  0  0  0  0  0  0  0  0  0
    4.3642    5.1634    4.4836 N   0  0  0  0  0  0  0  0  0  0  0  0
    3.5853    4.5518    4.8105 H   0  0  0  0  0  0  0  0  0  0  0  0
    6.7089    6.0358    5.0721 C   0  0  0  0  0  0  0  0  0  0  0  0
    9.0129    6.5572    5.9879 C   0  0  0  0  0  0  0  0  0  0  0  0
    9.3244    7.1853    4.9384 O   0  0  0  0  0  0  0  0  0  0  0  0
    7.8061    5.7772    6.0159 N   0  0  0  0  0  0  0  0  0  0  0  0
    7.7135    5.0503    6.7578 H   0  0  0  0  0  0  0  0  0  0  0  0
    9.8812    6.6322    7.2214 C   0  0  0  0  0  0  0  0  0  0  0  0
    9.3256    7.6935    8.1704 C   0  0  0  0  0  0  0  0  0  0  0  0
   12.3849    6.1770    7.4453 C   0  0  0  0  0  0  0  0  0  0  0  0
   12.1820    5.3283    8.3555 O   0  0  0  0  0  0  0  0  0  0  0  0
   11.2875    6.9276    6.8968 N   0  0  0  0  0  0  0  0  0  0  0  0
   11.5280    7.6760    6.2128 H   0  0  0  0  0  0  0  0  0  0  0  0
   13.7884    6.3995    6.9381 C   0  0  0  0  0  0  0  0  0  0  0  0
   14.9543    6.8391    4.7282 C   0  0  0  0  0  0  0  0  0  0  0  0
   15.4251    5.9631    3.9501 O   0  0  0  0  0  0  0  0  0  0  0  0
   13.7728    6.5320    5.4777 N   0  0  0  0  0  0  0  0  0  0  0  0
   13.0408    5.9998    4.9653 H   0  0  0  0  0  0  0  0  0  0  0  0
   15.5708    8.2280    4.7098 C   0  0  0  0  0  0  0  0  0  0  0  0
   17.7175    8.8042    5.8830 C   0  0  0  0  0  0  0  0  0  0  0  0
   18.1441    9.7014    5.1048 O   0  0  0  0  0  0  0  0  0  0  0  0
   16.3143    8.5261    5.9359 N   0  0  0  0  0  0  0  0  0  0  0  0
   15.8294    8.5829    6.8568 H   0  0  0  0  0  0  0  0  0  0  0  0
   19.9996    7.9365    6.0206 N   0  0  0  0  0  0  0  0  0  0  0  0
   18.6892    7.9639    6.6843 C   0  0  0  0  0  0  0  0  0  0  0  0
   20.6083    7.2481    6.5225 H   0  0  0  0  0  0  0  0  0  0  0  0
   19.8756    7.5544    5.0561 H   0  0  0  0  0  0  0  0  0  0  0  0
   18.8056    8.4587    8.1432 C   0  0  0  0  0  0  0  0  0  0  0  0
   18.8298    7.3410    9.0006 O   0  0  0  0  0  0  0  0  0  0  0  0
   20.0630    9.3072    8.3798 C   0  0  0  0  0  0  0  0  0  0  0  0
   18.6473    7.6766    9.9152 H   0  0  0  0  0  0  0  0  0  0  0  0
   14.5139    9.3108    4.4308 C   0  0  0  0  0  0  0  0  0  0  0  0
   13.8205    9.1711    3.0638 C   0  0  0  0  0  0  0  0  0  0  0  0
   14.6961    9.6379    1.9283 C   0  0  0  0  0  0  0  0  0  0  0  0
   14.6830   10.8366    1.5443 O   0  0  0  0  0  0  0  0  0  0  0  0
   15.5685    8.7110    1.2848 N   0  0  0  0  0  0  0  0  0  0  0  0
   16.1922    9.0251    0.5114 H   0  0  0  0  0  0  0  0  0  0  0  0
   15.6287    7.7189    1.6131 H   0  0  0  0  0  0  0  0  0  0  0  0
   14.8360    5.3408    7.3961 C   0  0  0  0  0  0  0  0  0  0  0  0
   15.9849    5.8139    8.3111 C   0  0  0  0  0  0  0  0  0  0  0  0
   15.8319    5.5371    9.7892 C   0  0  0  0  0  0  0  0  0  0  0  0
   16.8673    5.3034   10.4618 O   0  0  0  0  0  0  0  0  0  0  0  0
   14.5614    5.4841   10.4467 N   0  0  0  0  0  0  0  0  0  0  0  0
   13.6586    5.4868    9.9289 H   0  0  0  0  0  0  0  0  0  0  0  0
   14.5191    5.3198   11.4804 H   0  0  0  0  0  0  0  0  0  0  0  0
    6.0667    7.4110    5.3489 C   0  0  0  0  0  0  0  0  0  0  0  0
    6.4356    8.3442    4.3644 O   0  0  0  0  0  0  0  0  0  0  0  0
    5.7750    8.2503    3.6252 H   0  0  0  0  0  0  0  0  0  0  0  0
    2.9124    6.6082    3.0930 C   0  0  0  0  0  0  0  0  0  0  0  0
    3.1364    7.9140    2.3842 C   0  0  0  0  0  0  0  0  0  0  0  0
    3.1536    9.1660    2.9708 C   0  0  0  0  0  0  0  0  0  0  0  0
    3.3177   10.0994    2.0106 N   0  0  0  0  0  0  0  0  0  0  0  0
    3.3979    9.3884    0.8618 C   0  0  0  0  0  0  0  0  0  0  0  0
    3.2996    8.0577    1.0607 N   0  0  0  0  0  0  0  0  0  0  0  0
    3.3100    7.3130    0.3307 H   0  0  0  0  0  0  0  0  0  0  0  0
 95 96  1  0  0  0
 96 91  1  0  0  0
 91 92  2  0  0  0
 91 93  1  0  0  0
 93 90  1  0  0  0
 90103  1  0  0  0
103104  1  0  0  0
104105  1  0  0  0
105106  2  0  0  0
105107  1  0  0  0
 90 86  1  0  0  0
 86 87  2  0  0  0
 86 88  1  0  0  0
 88 85  1  0  0  0
 85110  1  0  0  0
110111  1  0  0  0
111112  1  0  0  0
112113  2  0  0  0
112114  1  0  0  0
 85 81  1  0  0  0
 81 82  2  0  0  0
 81 83  1  0  0  0
 83 79  1  0  0  0
 79 80  1  0  0  0
 79 75  1  0  0  0
 75 76  2  0  0  0
 75 77  1  0  0  0
 77 74  1  0  0  0
 74117  1  0  0  0
117118  1  0  0  0
 74 70  1  0  0  0
 70 71  2  0  0  0
 70 72  1  0  0  0
 72 69  1  0  0  0
 69120  1  0  0  0
120121  1  0  0  0
121122  2  0  0  0
122123  1  0  0  0
123124  2  0  0  0
124125  1  0  0  0
 69 65  1  0  0  0
 65 66  2  0  0  0
 65 67  1  0  0  0
 67  1  1  0  0  0
  1  2  1  0  0  0
  2  3  2  0  0  0
  3  4  1  0  0  0
  4  5  2  0  0  0
  5  6  1  0  0  0
  5  7  1  0  0  0
  7  8  2  0  0  0
  1 10  1  0  0  0
 10 11  2  0  0  0
 10 12  1  0  0  0
 12 14  1  0  0  0
 14 58  1  0  0  0
 58 59  1  0  0  0
 59 60  1  0  0  0
 60 61  1  0  0  0
 61 62  1  0  0  0
 14 15  1  0  0  0
 15 16  2  0  0  0
 15 17  1  0  0  0
 17 19  1  0  0  0
 19 51  1  0  0  0
 51 52  1  0  0  0
 52 53  1  0  0  0
 53 54  2  0  0  0
 53 55  1  0  0  0
 19 20  1  0  0  0
 20 21  2  0  0  0
 20 22  1  0  0  0
 22 24  1  0  0  0
 24 44  1  0  0  0
 44 45  1  0  0  0
 45 46  2  0  0  0
 46 47  1  0  0  0
 47 48  2  0  0  0
 48 49  1  0  0  0
 24 25  1  0  0  0
 25 26  2  0  0  0
 25 27  1  0  0  0
 27 29  1  0  0  0
 29 41  1  0  0  0
 41 42  1  0  0  0
 29 30  1  0  0  0
 30 31  2  0  0  0
 30 32  1  0  0  0
 32 33  1  0  0  0
 33 34  1  0  0  0
 34 35  1  0  0  0
 35 36  1  0  0  0
 36 37  1  0  0  0
 37 38  1  0  0  0
 37 39  2  0  0  0
 96 99  1  0  0  0
 99100  1  0  0  0
 99101  1  0  0  0
125121  1  0  0  0
  8  2  1  0  0  0
 49 45  1  0  0  0
 36 32  1  0  0  0
 95 97  1  0  0  0
 95 98  1  0  0  0
 93 94  1  0  0  0
107108  1  0  0  0
107109  1  0  0  0
 88 89  1  0  0  0
114115  1  0  0  0
114116  1  0  0  0
 83 84  1  0  0  0
 77 78  1  0  0  0
118119  1  0  0  0
 72 73  1  0  0  0
125126  1  0  0  0
 67 68  1  0  0  0
  6  9  1  0  0  0
 12 13  1  0  0  0
 62 63  1  0  0  0
 62 64  1  0  0  0
 17 18  1  0  0  0
 55 56  1  0  0  0
 55 57  1  0  0  0
 22 23  1  0  0  0
 49 50  1  0  0  0
 27 28  1  0  0  0
 42 43  1  0  0  0
 38 40  1  0  0  0
100102  1  0  0  0
M  END
> <minimizedAffinity>
-4.38432

$$$$



126129  0  0  0  0  0  0  0  0999 V2000
   32.2562    2.4341   10.8100 C   0  0  0  0  0  0  0  0  0  0  0  0
   31.5435    3.4500    9.9476 C   0  0  0  0  0  0  0  0  0  0  0  0
   30.5021    4.2386   10.4691 C   0  0  0  0  0  0  0  0  0  0  0  0
   29.8847    5.2084    9.6757 C   0  0  0  0  0  0  0  0  0  0  0  0
   30.2839    5.3908    8.3457 C   0  0  0  0  0  0  0  0  0  0  0  0
   29.6633    6.3634    7.5627 O   0  0  0  0  0  0  0  0  0  0  0  0
   31.3085    4.5989    7.8138 C   0  0  0  0  0  0  0  0  0  0  0  0
   31.9398    3.6412    8.6143 C   0  0  0  0  0  0  0  0  0  0  0  0
   29.9042    6.4832    6.5857 H   0  0  0  0  0  0  0  0  0  0  0  0
   33.5542    2.9938   11.3307 C   0  0  0  0  0  0  0  0  0  0  0  0
   33.5607    3.7985   12.2991 O   0  0  0  0  0  0  0  0  0  0  0  0
   34.7891    2.6419   10.6921 N   0  0  0  0  0  0  0  0  0  0  0  0
   34.9109    1.6379   10.4245 H   0  0  0  0  0  0  0  0  0  0  0  0
   35.7004    3.6071   10.0556 C   0  0  0  0  0  0  0  0  0  0  0  0
   35.9066    3.2137    8.6120 C   0  0  0  0  0  0  0  0  0  0  0  0
   35.3499    2.1797    8.1432 O   0  0  0  0  0  0  0  0  0  0  0  0
   36.7514    4.0159    7.7753 N   0  0  0  0  0  0  0  0  0  0  0  0
   37.0222    4.9657    8.1187 H   0  0  0  0  0  0  0  0  0  0  0  0
   37.5382    3.4293    6.6843 C   0  0  0  0  0  0  0  0  0  0  0  0
   37.1451    4.0631    5.3716 C   0  0  0  0  0  0  0  0  0  0  0  0
   38.0394    4.5248    4.6144 O   0  0  0  0  0  0  0  0  0  0  0  0
   35.7670    4.0812    4.9559 N   0  0  0  0  0  0  0  0  0  0  0  0
   35.0706    3.6174    5.5864 H   0  0  0  0  0  0  0  0  0  0  0  0
   35.3715    4.4536    3.5873 C   0  0  0  0  0  0  0  0  0  0  0  0
   34.0051    5.1079    3.5522 C   0  0  0  0  0  0  0  0  0  0  0  0
   33.4306    5.3981    4.6368 O   0  0  0  0  0  0  0  0  0  0  0  0
   33.2743    5.2821    2.3231 N   0  0  0  0  0  0  0  0  0  0  0  0
   32.2438    5.0999    2.3730 H   0  0  0  0  0  0  0  0  0  0  0  0
   33.7511    5.9956    1.1241 C   0  0  0  0  0  0  0  0  0  0  0  0
   33.0782    5.4868   -0.1308 C   0  0  0  0  0  0  0  0  0  0  0  0
   33.0285    4.2530   -0.3604 O   0  0  0  0  0  0  0  0  0  0  0  0
   32.6038    6.3914   -1.1375 N   0  0  0  0  0  0  0  0  0  0  0  0
   31.2308    6.8626   -1.1887 C   0  0  0  0  0  0  0  0  0  0  0  0
   31.0342    7.4012   -2.5982 C   0  0  0  0  0  0  0  0  0  0  0  0
   32.4399    7.6343   -3.1477 C   0  0  0  0  0  0  0  0  0  0  0  0
   33.3555    6.7084   -2.3450 C   0  0  0  0  0  0  0  0  0  0  0  0
   33.6832    5.4623   -3.1210 C   0  0  0  0  0  0  0  0  0  0  0  0
   32.6752    4.5597   -3.4284 O   0  0  0  0  0  0  0  0  0  0  0  0
   34.8720    5.2218   -3.4634 O   0  0  0  0  0  0  0  0  0  0  0  0
   32.8774    3.7075   -3.9369 H   0  0  0  0  0  0  0  0  0  0  0  0
   33.6264    7.5230    1.2981 C   0  0  0  0  0  0  0  0  0  0  0  0
   32.1483    7.9847    2.2638 S   0  0  0  0  0  0  0  0  0  0  0  0
   32.4998    7.2466    3.4035 H   0  0  0  0  0  0  0  0  0  0  0  0
   35.4107    3.2079    2.6759 C   0  0  0  0  0  0  0  0  0  0  0  0
   36.3698    3.3623    1.5237 C   0  0  0  0  0  0  0  0  0  0  0  0
   36.2462    2.8003    0.2736 C   0  0  0  0  0  0  0  0  0  0  0  0
   37.3177    3.1362   -0.4705 N   0  0  0  0  0  0  0  0  0  0  0  0
   38.0758    3.8891    0.3552 C   0  0  0  0  0  0  0  0  0  0  0  0
   37.5272    4.0453    1.5737 N   0  0  0  0  0  0  0  0  0  0  0  0
   37.9376    4.5472    2.3923 H   0  0  0  0  0  0  0  0  0  0  0  0
   39.0446    3.6458    6.9417 C   0  0  0  0  0  0  0  0  0  0  0  0
   39.8518    2.3408    6.8340 C   0  0  0  0  0  0  0  0  0  0  0  0
   41.0490    2.5137    5.9406 C   0  0  0  0  0  0  0  0  0  0  0  0
   42.1461    1.9773    6.2509 O   0  0  0  0  0  0  0  0  0  0  0  0
   40.9543    3.2911    4.7453 N   0  0  0  0  0  0  0  0  0  0  0  0
   41.7742    3.3740    4.1035 H   0  0  0  0  0  0  0  0  0  0  0  0
   40.0754    3.7963    4.4980 H   0  0  0  0  0  0  0  0  0  0  0  0
   37.0371    3.7865   10.8196 C   0  0  0  0  0  0  0  0  0  0  0  0
   37.5232    2.4804   11.4710 C   0  0  0  0  0  0  0  0  0  0  0  0
   38.5016    1.6927   10.5810 C   0  0  0  0  0  0  0  0  0  0  0  0
   37.9684    0.3386   10.0678 C   0  0  0  0  0  0  0  0  0  0  0  0
   37.9719   -0.6972   11.1038 N   0  0  0  0  0  0  0  0  0  0  0  0
   37.2276   -0.4751   11.8071 H   0  0  0  0  0  0  0  0  0  0  0  0
   38.8895   -0.6875   11.5946 H   0  0  0  0  0  0  0  0  0  0  0  0
   31.4712    0.6606   12.4055 C   0  0  0  0  0  0  0  0  0  0  0  0
   31.4569   -0.3096   11.6018 O   0  0  0  0  0  0  0  0  0  0  0  0
   31.3903    1.9996   11.9106 N   0  0  0  0  0  0  0  0  0  0  0  0
   30.8399    2.7057   12.4528 H   0  0  0  0  0  0  0  0  0  0  0  0
   31.7874    0.4323   13.8546 C   0  0  0  0  0  0  0  0  0  0  0  0
   33.2378   -1.4866   14.6961 C   0  0  0  0  0  0  0  0  0  0  0  0
   33.7667   -2.5562   14.2745 O   0  0  0  0  0  0  0  0  0  0  0  0
   32.0546   -0.9961   14.0428 N   0  0  0  0  0  0  0  0  0  0  0  0
   31.5602   -1.6685   13.4176 H   0  0  0  0  0  0  0  0  0  0  0  0
   33.7895   -0.8022   15.9289 C   0  0  0  0  0  0  0  0  0  0  0  0
   35.5840   -2.3299   16.8589 C   0  0  0  0  0  0  0  0  0  0  0  0
   34.7493   -2.9103   17.6067 O   0  0  0  0  0  0  0  0  0  0  0  0
   35.2029   -1.1282   16.1690 N   0  0  0  0  0  0  0  0  0  0  0  0
   35.9629   -0.5153   15.8028 H   0  0  0  0  0  0  0  0  0  0  0  0
   36.9712   -2.8943   16.6630 C   0  0  0  0  0  0  0  0  0  0  0  0
   37.9703   -1.7476   16.5139 C   0  0  0  0  0  0  0  0  0  0  0  0
   36.7364   -5.1923   15.5722 C   0  0  0  0  0  0  0  0  0  0  0  0
   36.5309   -5.7378   16.6902 O   0  0  0  0  0  0  0  0  0  0  0  0
   37.0493   -3.7907   15.4964 N   0  0  0  0  0  0  0  0  0  0  0  0
   37.2966   -3.4166   14.5558 H   0  0  0  0  0  0  0  0  0  0  0  0
   36.6528   -6.0228   14.3152 C   0  0  0  0  0  0  0  0  0  0  0  0
   36.7808   -5.6555   11.8083 C   0  0  0  0  0  0  0  0  0  0  0  0
   35.7983   -5.5591   11.0209 O   0  0  0  0  0  0  0  0  0  0  0  0
   36.6494   -5.1452   13.1402 N   0  0  0  0  0  0  0  0  0  0  0  0
   36.1377   -4.2440   13.2283 H   0  0  0  0  0  0  0  0  0  0  0  0
   38.1028   -6.1615   11.2551 C   0  0  0  0  0  0  0  0  0  0  0  0
   40.2880   -4.9230   11.1660 C   0  0  0  0  0  0  0  0  0  0  0  0
   41.0795   -5.9042   11.1087 O   0  0  0  0  0  0  0  0  0  0  0  0
   38.9362   -5.0813   10.7224 N   0  0  0  0  0  0  0  0  0  0  0  0
   38.5755   -4.4398    9.9843 H   0  0  0  0  0  0  0  0  0  0  0  0
   40.4647   -2.5024   10.8673 N   0  0  0  0  0  0  0  0  0  0  0  0
   40.7359   -3.6163   11.7860 C   0  0  0  0  0  0  0  0  0  0  0  0
   40.9000   -1.6362   11.2629 H   0  0  0  0  0  0  0  0  0  0  0  0
   40.9639   -2.6847    9.9676 H   0  0  0  0  0  0  0  0  0  0  0  0
   40.0803   -3.3829   13.1652 C   0  0  0  0  0  0  0  0  0  0  0  0
   38.7210   -3.0658   12.9733 O   0  0  0  0  0  0  0  0  0  0  0  0
   40.1910   -4.6065   14.0858 C   0  0  0  0  0  0  0  0  0  0  0  0
   38.3937   -2.6773   13.8243 H   0  0  0  0  0  0  0  0  0  0  0  0
   37.8891   -7.2617   10.2011 C   0  0  0  0  0  0  0  0  0  0  0  0
   37.5382   -8.6376   10.7950 C   0  0  0  0  0  0  0  0  0  0  0  0
   36.1443   -9.0803   10.4274 C   0  0  0  0  0  0  0  0  0  0  0  0
   35.6811  -10.1794   10.8299 O   0  0  0  0  0  0  0  0  0  0  0  0
   35.3262   -8.2341    9.6218 N   0  0  0  0  0  0  0  0  0  0  0  0
   34.3547   -8.5199    9.3764 H   0  0  0  0  0  0  0  0  0  0  0  0
   35.6728   -7.2970    9.3097 H   0  0  0  0  0  0  0  0  0  0  0  0
   35.4691   -7.0350   14.2651 C   0  0  0  0  0  0  0  0  0  0  0  0
   35.8084   -8.5324   14.1104 C   0  0  0  0  0  0  0  0  0  0  0  0
   34.7670   -9.5165   14.5919 C   0  0  0  0  0  0  0  0  0  0  0  0
   33.9134   -9.9312   13.7681 O   0  0  0  0  0  0  0  0  0  0  0  0
   34.6809   -9.9609   15.9499 N   0  0  0  0  0  0  0  0  0  0  0  0
   35.2315   -9.5287   16.7200 H   0  0  0  0  0  0  0  0  0  0  0  0
   33.9574  -10.6692   16.2186 H   0  0  0  0  0  0  0  0  0  0  0  0
   32.9285   -1.1842   17.1509 C   0  0  0  0  0  0  0  0  0  0  0  0
   31.9446   -2.1238   16.7972 O   0  0  0  0  0  0  0  0  0  0  0  0
   32.3663   -3.0214   16.8878 H   0  0  0  0  0  0  0  0  0  0  0  0
   30.6453    0.9036   14.7736 C   0  0  0  0  0  0  0  0  0  0  0  0
   31.1818    1.7596   15.8859 C   0  0  0  0  0  0  0  0  0  0  0  0
   32.2561    2.6259   15.8005 C   0  0  0  0  0  0  0  0  0  0  0  0
   32.4804    3.1694   17.0148 N   0  0  0  0  0  0  0  0  0  0  0  0
   31.5327    2.6191   17.8089 C   0  0  0  0  0  0  0  0  0  0  0  0
   30.7246    1.7656   17.1468 N   0  0  0  0  0  0  0  0  0  0  0  0
   29.9411    1.2064   17.5480 H   0  0  0  0  0  0  0  0  0  0  0  0
 95 96  1  0  0  0
 96 91  1  0  0  0
 91 92  2  0  0  0
 91 93  1  0  0  0
 93 90  1  0  0  0
 90103  1  0  0  0
103104  1  0  0  0
104105  1  0  0  0
105106  2  0  0  0
105107  1  0  0  0
 90 86  1  0  0  0
 86 87  2  0  0  0
 86 88  1  0  0  0
 88 85  1  0  0  0
 85110  1  0  0  0
110111  1  0  0  0
111112  1  0  0  0
112113  2  0  0  0
112114  1  0  0  0
 85 81  1  0  0  0
 81 82  2  0  0  0
 81 83  1  0  0  0
 83 79  1  0  0  0
 79 80  1  0  0  0
 79 75  1  0  0  0
 75 76  2  0  0  0
 75 77  1  0  0  0
 77 74  1  0  0  0
 74117  1  0  0  0
117118  1  0  0  0
 74 70  1  0  0  0
 70 71  2  0  0  0
 70 72  1  0  0  0
 72 69  1  0  0  0
 69120  1  0  0  0
120121  1  0  0  0
121122  2  0  0  0
122123  1  0  0  0
123124  2  0  0  0
124125  1  0  0  0
 69 65  1  0  0  0
 65 66  2  0  0  0
 65 67  1  0  0  0
 67  1  1  0  0  0
  1  2  1  0  0  0
  2  3  2  0  0  0
  3  4  1  0  0  0
  4  5  2  0  0  0
  5  6  1  0  0  0
  5  7  1  0  0  0
  7  8  2  0  0  0
  1 10  1  0  0  0
 10 11  2  0  0  0
 10 12  1  0  0  0
 12 14  1  0  0  0
 14 58  1  0  0  0
 58 59  1  0  0  0
 59 60  1  0  0  0
 60 61  1  0  0  0
 61 62  1  0  0  0
 14 15  1  0  0  0
 15 16  2  0  0  0
 15 17  1  0  0  0
 17 19  1  0  0  0
 19 51  1  0  0  0
 51 52  1  0  0  0
 52 53  1  0  0  0
 53 54  2  0  0  0
 53 55  1  0  0  0
 19 20  1  0  0  0
 20 21  2  0  0  0
 20 22  1  0  0  0
 22 24  1  0  0  0
 24 44  1  0  0  0
 44 45  1  0  0  0
 45 46  2  0  0  0
 46 47  1  0  0  0
 47 48  2  0  0  0
 48 49  1  0  0  0
 24 25  1  0  0  0
 25 26  2  0  0  0
 25 27  1  0  0  0
 27 29  1  0  0  0
 29 41  1  0  0  0
 41 42  1  0  0  0
 29 30  1  0  0  0
 30 31  2  0  0  0
 30 32  1  0  0  0
 32 33  1  0  0  0
 33 34  1  0  0  0
 34 35  1  0  0  0
 35 36  1  0  0  0
 36 37  1  0  0  0
 37 38  1  0  0  0
 37 39  2  0  0  0
 96 99  1  0  0  0
 99100  1  0  0  0
 99101  1  0  0  0
125121  1  0  0  0
  8  2  1  0  0  0
 49 45  1  0  0  0
 36 32  1  0  0  0
 95 97  1  0  0  0
 95 98  1  0  0  0
 93 94  1  0  0  0
107108  1  0  0  0
107109  1  0  0  0
 88 89  1  0  0  0
114115  1  0  0  0
114116  1  0  0  0
 83 84  1  0  0  0
 77 78  1  0  0  0
118119  1  0  0  0
 72 73  1  0  0  0
125126  1  0  0  0
 67 68  1  0  0  0
  6  9  1  0  0  0
 12 13  1  0  0  0
 62 63  1  0  0  0
 62 64  1  0  0  0
 17 18  1  0  0  0
 55 56  1  0  0  0
 55 57  1  0  0  0
 22 23  1  0  0  0
 49 50  1  0  0  0
 27 28  1  0  0  0
 42 43  1  0  0  0
 38 40  1  0  0  0
100102  1  0  0  0
M  END
> <minimizedAffinity>
-4.36635

$$$$
