


126129  0  0  0  0  0  0  0  0999 V2000
  113.5042   88.4358   88.1422 C   0  0  0  0  0  0  0  0  0  0  0  0
  113.0857   88.6104   89.0335 C   0  0  0  0  0  0  0  0  0  0  0  0
  112.9317   87.8548   89.6702 C   0  0  0  0  0  0  0  0  0  0  0  0
  112.5131   88.0295   90.5615 C   0  0  0  0  0  0  0  0  0  0  0  0
  112.2486   88.9596   90.8160 C   0  0  0  0  0  0  0  0  0  0  0  0
  111.8301   89.1342   91.7073 O   0  0  0  0  0  0  0  0  0  0  0  0
  112.4025   89.7152   90.1793 C   0  0  0  0  0  0  0  0  0  0  0  0
  112.8211   89.5406   89.2880 C   0  0  0  0  0  0  0  0  0  0  0  0
  111.6858   88.4263   92.3039 H   0  0  0  0  0  0  0  0  0  0  0  0
  114.4898   88.2813   88.0744 C   0  0  0  0  0  0  0  0  0  0  0  0
  115.0394   88.8286   87.4431 O   0  0  0  0  0  0  0  0  0  0  0  0
  114.9259   87.5797   88.6378 N   0  0  0  0  0  0  0  0  0  0  0  0
  114.3849   87.0409   89.2593 H   0  0  0  0  0  0  0  0  0  0  0  0
  115.9116   87.4252   88.5700 C   0  0  0  0  0  0  0  0  0  0  0  0
  116.2588   86.5940   88.1357 C   0  0  0  0  0  0  0  0  0  0  0  0
  116.3006   85.7395   88.6534 O   0  0  0  0  0  0  0  0  0  0  0  0
  116.5641   86.6174   87.1837 N   0  0  0  0  0  0  0  0  0  0  0  0
  116.5229   87.4587   86.6741 H   0  0  0  0  0  0  0  0  0  0  0  0
  116.9113   85.7862   86.7494 C   0  0  0  0  0  0  0  0  0  0  0  0
  117.8922   85.6788   86.5879 C   0  0  0  0  0  0  0  0  0  0  0  0
  118.3937   86.3754   86.0748 O   0  0  0  0  0  0  0  0  0  0  0  0
  118.3719   84.8748   86.9395 N   0  0  0  0  0  0  0  0  0  0  0  0
  117.8782   84.1890   87.4447 H   0  0  0  0  0  0  0  0  0  0  0  0
  119.3528   84.7674   86.7779 C   0  0  0  0  0  0  0  0  0  0  0  0
  120.0103   85.1024   87.4528 C   0  0  0  0  0  0  0  0  0  0  0  0
  119.8280   84.9859   88.4291 O   0  0  0  0  0  0  0  0  0  0  0  0
  120.8501   85.5540   87.1513 N   0  0  0  0  0  0  0  0  0  0  0  0
  121.0295   85.6688   86.1902 H   0  0  0  0  0  0  0  0  0  0  0  0
  121.5075   85.8891   87.8262 C   0  0  0  0  0  0  0  0  0  0  0  0
  122.0088   86.7377   87.6574 C   0  0  0  0  0  0  0  0  0  0  0  0
  122.8417   86.7249   87.1041 O   0  0  0  0  0  0  0  0  0  0  0  0
  121.6772   87.5993   88.0418 N   0  0  0  0  0  0  0  0  0  0  0  0
  120.8591   87.7153   88.6051 C   0  0  0  0  0  0  0  0  0  0  0  0
  120.7818   88.6838   88.8418 C   0  0  0  0  0  0  0  0  0  0  0  0
  121.5520   89.1663   88.4249 C   0  0  0  0  0  0  0  0  0  0  0  0
  122.1054   88.4961   87.9305 C   0  0  0  0  0  0  0  0  0  0  0  0
  122.9405   88.6887   87.4153 C   0  0  0  0  0  0  0  0  0  0  0  0
  123.8294   88.6529   87.8720 O   0  0  0  0  0  0  0  0  0  0  0  0
  122.8867   88.9172   86.4432 O   0  0  0  0  0  0  0  0  0  0  0  0
  123.8798   88.4389   88.7828 H   0  0  0  0  0  0  0  0  0  0  0  0
  121.6638   85.3755   88.6700 C   0  0  0  0  0  0  0  0  0  0  0  0
  122.4832   84.8106   88.7670 S   0  0  0  0  0  0  0  0  0  0  0  0
  123.3852   84.7408   87.7516 H   0  0  0  0  0  0  0  0  0  0  0  0
  119.6764   84.3249   85.9415 C   0  0  0  0  0  0  0  0  0  0  0  0
  119.5611   83.3390   85.8207 C   0  0  0  0  0  0  0  0  0  0  0  0
  118.9874   82.8942   85.1329 C   0  0  0  0  0  0  0  0  0  0  0  0
  119.0709   81.9051   85.2535 N   0  0  0  0  0  0  0  0  0  0  0  0
  119.6964   81.7384   86.0159 C   0  0  0  0  0  0  0  0  0  0  0  0
  119.9993   82.6248   86.3664 N   0  0  0  0  0  0  0  0  0  0  0  0
  120.6199   82.7687   87.1169 H   0  0  0  0  0  0  0  0  0  0  0  0
  116.2774   85.0624   86.4767 C   0  0  0  0  0  0  0  0  0  0  0  0
  115.7529   85.1500   85.6298 C   0  0  0  0  0  0  0  0  0  0  0  0
  115.1168   84.4276   85.3587 C   0  0  0  0  0  0  0  0  0  0  0  0
  115.4494   83.6337   84.8495 O   0  0  0  0  0  0  0  0  0  0  0  0
  114.1482   84.4990   85.5967 N   0  0  0  0  0  0  0  0  0  0  0  0
  113.8209   85.2806   86.0980 H   0  0  0  0  0  0  0  0  0  0  0  0
  113.5220   83.7879   85.3297 H   0  0  0  0  0  0  0  0  0  0  0  0
  116.5502   88.1019   88.9364 C   0  0  0  0  0  0  0  0  0  0  0  0
  116.9060   88.0018   89.8657 C   0  0  0  0  0  0  0  0  0  0  0  0
  116.8709   88.7738   90.5004 C   0  0  0  0  0  0  0  0  0  0  0  0
  117.6996   89.2981   90.6963 C   0  0  0  0  0  0  0  0  0  0  0  0
  117.8026   89.7599   91.5772 N   0  0  0  0  0  0  0  0  0  0  0  0
  117.0622   89.6962   92.2760 H   0  0  0  0  0  0  0  0  0  0  0  0
  118.6478   90.2946   91.7770 H   0  0  0  0  0  0  0  0  0  0  0  0
  112.6724   87.5397   86.9153 C   0  0  0  0  0  0  0  0  0  0  0  0
  112.9749   86.6840   87.3352 O   0  0  0  0  0  0  0  0  0  0  0  0
  112.9370   88.4156   87.3188 N   0  0  0  0  0  0  0  0  0  0  0  0
  112.6393   89.2580   86.9055 H   0  0  0  0  0  0  0  0  0  0  0  0
  112.1053   87.5196   86.0920 C   0  0  0  0  0  0  0  0  0  0  0  0
  110.3992   87.2270   86.1536 C   0  0  0  0  0  0  0  0  0  0  0  0
  110.2393   88.1975   86.3339 O   0  0  0  0  0  0  0  0  0  0  0  0
  111.3322   86.8880   86.0326 N   0  0  0  0  0  0  0  0  0  0  0  0
  111.4897   85.9325   85.8551 H   0  0  0  0  0  0  0  0  0  0  0  0
  109.6262   86.5954   86.0943 C   0  0  0  0  0  0  0  0  0  0  0  0
  109.3774   85.3118   84.9584 C   0  0  0  0  0  0  0  0  0  0  0  0
  109.7684   84.6605   85.6087 O   0  0  0  0  0  0  0  0  0  0  0  0
  109.3063   86.2792   85.2012 N   0  0  0  0  0  0  0  0  0  0  0  0
  108.9213   86.9204   84.5609 H   0  0  0  0  0  0  0  0  0  0  0  0
  109.0575   84.9955   84.0653 C   0  0  0  0  0  0  0  0  0  0  0  0
  108.1944   85.3374   83.6936 C   0  0  0  0  0  0  0  0  0  0  0  0
  110.1336   84.6429   82.7548 C   0  0  0  0  0  0  0  0  0  0  0  0
  110.1235   85.6063   82.4872 O   0  0  0  0  0  0  0  0  0  0  0  0
  109.6006   84.3375   83.5439 N   0  0  0  0  0  0  0  0  0  0  0  0
  109.6106   83.3889   83.8074 H   0  0  0  0  0  0  0  0  0  0  0  0
  110.6769   83.9848   82.2334 C   0  0  0  0  0  0  0  0  0  0  0  0
  110.0099   83.1782   80.8533 C   0  0  0  0  0  0  0  0  0  0  0  0
  110.2226   83.9735   80.2857 O   0  0  0  0  0  0  0  0  0  0  0  0
  110.2370   83.1838   81.8271 N   0  0  0  0  0  0  0  0  0  0  0  0
  110.0276   82.4008   82.3860 H   0  0  0  0  0  0  0  0  0  0  0  0
  109.5700   82.3772   80.4471 C   0  0  0  0  0  0  0  0  0  0  0  0
  110.3761   80.8443   80.4676 C   0  0  0  0  0  0  0  0  0  0  0  0
  110.9178   81.1185   79.6731 O   0  0  0  0  0  0  0  0  0  0  0  0
  109.7022   81.4737   80.8546 N   0  0  0  0  0  0  0  0  0  0  0  0
  109.1688   81.2038   81.6369 H   0  0  0  0  0  0  0  0  0  0  0  0
  110.0222   79.1492   80.5047 N   0  0  0  0  0  0  0  0  0  0  0  0
  110.5082   79.9407   80.8752 C   0  0  0  0  0  0  0  0  0  0  0  0
  110.1570   78.2276   80.9204 H   0  0  0  0  0  0  0  0  0  0  0  0
  109.3918   79.2635   79.7110 H   0  0  0  0  0  0  0  0  0  0  0  0
  111.1263   79.8287   81.6533 C   0  0  0  0  0  0  0  0  0  0  0  0
  112.0775   80.1292   81.5836 O   0  0  0  0  0  0  0  0  0  0  0  0
  110.7932   79.4162   82.5011 C   0  0  0  0  0  0  0  0  0  0  0  0
  112.4007   80.5294   80.7611 H   0  0  0  0  0  0  0  0  0  0  0  0
  108.9980   82.4798   79.6333 C   0  0  0  0  0  0  0  0  0  0  0  0
  108.0061   82.3742   79.7029 C   0  0  0  0  0  0  0  0  0  0  0  0
  107.4332   82.4855   78.8908 C   0  0  0  0  0  0  0  0  0  0  0  0
  107.5029   83.3171   78.3398 O   0  0  0  0  0  0  0  0  0  0  0  0
  106.7906   81.7652   78.6297 N   0  0  0  0  0  0  0  0  0  0  0  0
  106.7220   80.9465   79.1721 H   0  0  0  0  0  0  0  0  0  0  0  0
  106.2266   81.8748   77.8303 H   0  0  0  0  0  0  0  0  0  0  0  0
  111.6599   84.1276   82.1181 C   0  0  0  0  0  0  0  0  0  0  0  0
  112.3103   83.5400   82.5994 C   0  0  0  0  0  0  0  0  0  0  0  0
  113.2304   83.4062   82.2314 C   0  0  0  0  0  0  0  0  0  0  0  0
  113.5573   82.4839   82.0255 O   0  0  0  0  0  0  0  0  0  0  0  0
  113.8236   84.1948   82.0692 N   0  0  0  0  0  0  0  0  0  0  0  0
  113.5018   85.1029   82.2719 H   0  0  0  0  0  0  0  0  0  0  0  0
  114.7295   84.0631   81.7069 H   0  0  0  0  0  0  0  0  0  0  0  0
  109.1731   86.2801   86.9281 C   0  0  0  0  0  0  0  0  0  0  0  0
  108.2407   86.5776   87.1336 O   0  0  0  0  0  0  0  0  0  0  0  0
  107.8012   86.2717   87.9424 H   0  0  0  0  0  0  0  0  0  0  0  0
  112.3112   88.1310   85.3279 C   0  0  0  0  0  0  0  0  0  0  0  0
  112.9270   87.8309   84.5993 C   0  0  0  0  0  0  0  0  0  0  0  0
  112.7098   87.1696   83.8814 C   0  0  0  0  0  0  0  0  0  0  0  0
  113.5167   87.0694   83.2991 N   0  0  0  0  0  0  0  0  0  0  0  0
  114.2325   87.6690   83.6572 C   0  0  0  0  0  0  0  0  0  0  0  0
  113.8680   88.1396   84.4608 N   0  0  0  0  0  0  0  0  0  0  0  0
  114.3509   88.7922   85.0177 H   0  0  0  0  0  0  0  0  0  0  0  0
 95 96  1  0  0  0
 95 97  1  0  0  0
 95 98  1  0  0  0
 96 91  1  0  0  0
 96 99  1  0  0  0
 91 92  2  0  0  0
 91 93  1  0  0  0
 93 90  1  0  0  0
 93 94  1  0  0  0
 90103  1  0  0  0
 90 86  1  0  0  0
103104  1  0  0  0
104105  1  0  0  0
105106  2  0  0  0
105107  1  0  0  0
107108  1  0  0  0
107109  1  0  0  0
 86 87  2  0  0  0
 86 88  1  0  0  0
 88 85  1  0  0  0
 88 89  1  0  0  0
 85110  1  0  0  0
 85 81  1  0  0  0
110111  1  0  0  0
111112  1  0  0  0
112113  2  0  0  0
112114  1  0  0  0
114115  1  0  0  0
114116  1  0  0  0
 81 82  2  0  0  0
 81 83  1  0  0  0
 83 79  1  0  0  0
 83 84  1  0  0  0
 79 80  1  0  0  0
 79 75  1  0  0  0
 75 76  2  0  0  0
 75 77  1  0  0  0
 77 74  1  0  0  0
 77 78  1  0  0  0
 74117  1  0  0  0
 74 70  1  0  0  0
117118  1  0  0  0
118119  1  0  0  0
 70 71  2  0  0  0
 70 72  1  0  0  0
 72 69  1  0  0  0
 72 73  1  0  0  0
 69120  1  0  0  0
 69 65  1  0  0  0
120121  1  0  0  0
121125  1  0  0  0
121122  2  0  0  0
122123  1  0  0  0
123124  2  0  0  0
124125  1  0  0  0
125126  1  0  0  0
 65 66  2  0  0  0
 65 67  1  0  0  0
 67  1  1  0  0  0
 67 68  1  0  0  0
  1  2  1  0  0  0
  1 10  1  0  0  0
  2  8  2  0  0  0
  2  3  1  0  0  0
  3  4  2  0  0  0
  4  5  1  0  0  0
  5  6  1  0  0  0
  5  7  2  0  0  0
  6  9  1  0  0  0
  7  8  1  0  0  0
 10 11  2  0  0  0
 10 12  1  0  0  0
 12 14  1  0  0  0
 12 13  1  0  0  0
 14 58  1  0  0  0
 14 15  1  0  0  0
 58 59  1  0  0  0
 59 60  1  0  0  0
 60 61  1  0  0  0
 61 62  1  0  0  0
 62 63  1  0  0  0
 62 64  1  0  0  0
 15 16  2  0  0  0
 15 17  1  0  0  0
 17 19  1  0  0  0
 17 18  1  0  0  0
 19 51  1  0  0  0
 19 20  1  0  0  0
 51 52  1  0  0  0
 52 53  1  0  0  0
 53 54  2  0  0  0
 53 55  1  0  0  0
 55 56  1  0  0  0
 55 57  1  0  0  0
 20 21  2  0  0  0
 20 22  1  0  0  0
 22 24  1  0  0  0
 22 23  1  0  0  0
 24 44  1  0  0  0
 24 25  1  0  0  0
 44 45  1  0  0  0
 45 49  1  0  0  0
 45 46  2  0  0  0
 46 47  1  0  0  0
 47 48  2  0  0  0
 48 49  1  0  0  0
 49 50  1  0  0  0
 25 26  2  0  0  0
 25 27  1  0  0  0
 27 29  1  0  0  0
 27 28  1  0  0  0
 29 41  1  0  0  0
 29 30  1  0  0  0
 41 42  1  0  0  0
 42 43  1  0  0  0
 30 31  2  0  0  0
 30 32  1  0  0  0
 32 36  1  0  0  0
 32 33  1  0  0  0
 33 34  1  0  0  0
 34 35  1  0  0  0
 35 36  1  0  0  0
 36 37  1  0  0  0
 37 38  1  0  0  0
 37 39  2  0  0  0
 38 40  1  0  0  0
 99100  1  0  0  0
 99101  1  0  0  0
100102  1  0  0  0
M  END
> <minimizedAffinity>
-8.01051

$$$$



126129  0  0  0  0  0  0  0  0999 V2000
  110.0335   85.0093   84.1050 C   0  0  0  0  0  0  0  0  0  0  0  0
  109.6926   85.9125   84.3658 C   0  0  0  0  0  0  0  0  0  0  0  0
  110.3281   86.6107   84.6954 C   0  0  0  0  0  0  0  0  0  0  0  0
  109.9872   87.5140   84.9562 C   0  0  0  0  0  0  0  0  0  0  0  0
  109.0108   87.7189   84.8874 C   0  0  0  0  0  0  0  0  0  0  0  0
  108.6700   88.6221   85.1482 O   0  0  0  0  0  0  0  0  0  0  0  0
  108.3754   87.0207   84.5579 C   0  0  0  0  0  0  0  0  0  0  0  0
  108.7162   86.1175   84.2971 C   0  0  0  0  0  0  0  0  0  0  0  0
  109.2654   89.2764   85.4571 H   0  0  0  0  0  0  0  0  0  0  0  0
  110.2620   84.8176   83.1506 C   0  0  0  0  0  0  0  0  0  0  0  0
  109.5430   84.8121   82.4556 O   0  0  0  0  0  0  0  0  0  0  0  0
  111.2096   84.6314   82.8911 N   0  0  0  0  0  0  0  0  0  0  0  0
  111.9175   84.6368   83.5752 H   0  0  0  0  0  0  0  0  0  0  0  0
  111.4383   84.4397   81.9365 C   0  0  0  0  0  0  0  0  0  0  0  0
  111.5462   83.4945   81.6284 C   0  0  0  0  0  0  0  0  0  0  0  0
  112.2007   82.8916   82.0845 O   0  0  0  0  0  0  0  0  0  0  0  0
  110.9996   83.1523   80.8641 N   0  0  0  0  0  0  0  0  0  0  0  0
  110.3553   83.7459   80.4150 H   0  0  0  0  0  0  0  0  0  0  0  0
  111.1076   82.2071   80.5559 C   0  0  0  0  0  0  0  0  0  0  0  0
  111.8272   81.9736   79.9020 C   0  0  0  0  0  0  0  0  0  0  0  0
  112.0097   82.5742   79.1236 O   0  0  0  0  0  0  0  0  0  0  0  0
  112.3645   81.1394   80.0266 N   0  0  0  0  0  0  0  0  0  0  0  0
  112.1849   80.5481   80.7930 H   0  0  0  0  0  0  0  0  0  0  0  0
  113.0842   80.9058   79.3728 C   0  0  0  0  0  0  0  0  0  0  0  0
  114.0160   81.2397   79.5145 C   0  0  0  0  0  0  0  0  0  0  0  0
  114.5792   81.4982   78.7297 O   0  0  0  0  0  0  0  0  0  0  0  0
  114.3847   81.3151   80.4410 N   0  0  0  0  0  0  0  0  0  0  0  0
  113.8302   81.0605   81.2136 H   0  0  0  0  0  0  0  0  0  0  0  0
  115.3166   81.6490   80.5827 C   0  0  0  0  0  0  0  0  0  0  0  0
  115.4913   82.3775   81.2450 C   0  0  0  0  0  0  0  0  0  0  0  0
  115.5134   82.1696   82.2229 O   0  0  0  0  0  0  0  0  0  0  0  0
  115.6441   83.3141   80.9293 N   0  0  0  0  0  0  0  0  0  0  0  0
  115.6419   83.6214   79.9777 C   0  0  0  0  0  0  0  0  0  0  0  0
  115.8222   84.6049   79.9703 C   0  0  0  0  0  0  0  0  0  0  0  0
  115.9359   84.9055   80.9172 C   0  0  0  0  0  0  0  0  0  0  0  0
  115.8257   84.1077   81.5100 C   0  0  0  0  0  0  0  0  0  0  0  0
  115.8866   84.1042   82.5081 C   0  0  0  0  0  0  0  0  0  0  0  0
  115.0559   84.1778   83.0600 O   0  0  0  0  0  0  0  0  0  0  0  0
  116.7782   84.0271   82.9544 O   0  0  0  0  0  0  0  0  0  0  0  0
  114.2206   84.2500   82.6418 H   0  0  0  0  0  0  0  0  0  0  0  0
  116.0737   81.2543   80.0621 C   0  0  0  0  0  0  0  0  0  0  0  0
  116.6188   80.5140   80.4555 S   0  0  0  0  0  0  0  0  0  0  0  0
  116.3304   80.0438   81.6986 H   0  0  0  0  0  0  0  0  0  0  0  0
  112.8719   80.3383   78.5772 C   0  0  0  0  0  0  0  0  0  0  0  0
  112.7640   79.3498   78.6826 C   0  0  0  0  0  0  0  0  0  0  0  0
  111.8983   78.8613   78.7922 C   0  0  0  0  0  0  0  0  0  0  0  0
  112.1020   77.8858   78.8743 N   0  0  0  0  0  0  0  0  0  0  0  0
  113.0937   77.7712   78.8155 C   0  0  0  0  0  0  0  0  0  0  0  0
  113.5028   78.6761   78.6970 N   0  0  0  0  0  0  0  0  0  0  0  0
  114.4642   78.8695   78.6099 H   0  0  0  0  0  0  0  0  0  0  0  0
  110.4959   81.4956   80.9015 C   0  0  0  0  0  0  0  0  0  0  0  0
  109.5050   81.6209   80.8526 C   0  0  0  0  0  0  0  0  0  0  0  0
  108.8951   80.9564   81.2844 C   0  0  0  0  0  0  0  0  0  0  0  0
  108.4117   80.2837   80.7241 O   0  0  0  0  0  0  0  0  0  0  0  0
  108.7685   80.9646   82.2763 N   0  0  0  0  0  0  0  0  0  0  0  0
  109.2444   81.6269   82.8278 H   0  0  0  0  0  0  0  0  0  0  0  0
  108.1680   80.3104   82.7013 H   0  0  0  0  0  0  0  0  0  0  0  0
  111.5589   85.1932   81.2903 C   0  0  0  0  0  0  0  0  0  0  0  0
  112.3685   85.7774   81.3488 C   0  0  0  0  0  0  0  0  0  0  0  0
  112.3464   86.7021   80.9689 C   0  0  0  0  0  0  0  0  0  0  0  0
  113.1922   87.1351   80.6575 C   0  0  0  0  0  0  0  0  0  0  0  0
  113.4033   88.0737   80.9303 N   0  0  0  0  0  0  0  0  0  0  0  0
  112.7557   88.5894   81.5263 H   0  0  0  0  0  0  0  0  0  0  0  0
  114.2661   88.5154   80.6128 H   0  0  0  0  0  0  0  0  0  0  0  0
  109.5455   83.4980   84.7964 C   0  0  0  0  0  0  0  0  0  0  0  0
  108.8328   83.4097   84.1004 O   0  0  0  0  0  0  0  0  0  0  0  0
  110.1458   84.2978   84.7987 N   0  0  0  0  0  0  0  0  0  0  0  0
  110.8474   84.3847   85.4838 H   0  0  0  0  0  0  0  0  0  0  0  0
  109.6578   82.7865   85.4900 C   0  0  0  0  0  0  0  0  0  0  0  0
  111.1283   81.8833   85.3429 C   0  0  0  0  0  0  0  0  0  0  0  0
  110.7731   81.4390   84.5204 O   0  0  0  0  0  0  0  0  0  0  0  0
  110.5706   82.5570   85.8277 N   0  0  0  0  0  0  0  0  0  0  0  0
  110.9203   82.9945   86.6374 H   0  0  0  0  0  0  0  0  0  0  0  0
  112.0412   81.6538   85.6805 C   0  0  0  0  0  0  0  0  0  0  0  0
  113.3284   82.7966   85.8727 C   0  0  0  0  0  0  0  0  0  0  0  0
  113.6129   82.6350   84.9277 O   0  0  0  0  0  0  0  0  0  0  0  0
  112.5426   82.3060   86.2491 N   0  0  0  0  0  0  0  0  0  0  0  0
  112.2625   82.4650   87.1794 H   0  0  0  0  0  0  0  0  0  0  0  0
  113.8298   83.4488   86.4412 C   0  0  0  0  0  0  0  0  0  0  0  0
  114.4554   83.1184   87.1479 C   0  0  0  0  0  0  0  0  0  0  0  0
  114.4012   85.0734   86.6254 C   0  0  0  0  0  0  0  0  0  0  0  0
  115.2209   84.7329   87.0859 O   0  0  0  0  0  0  0  0  0  0  0  0
  113.7056   84.4314   86.3030 N   0  0  0  0  0  0  0  0  0  0  0  0
  112.8986   84.7666   85.8497 H   0  0  0  0  0  0  0  0  0  0  0  0
  114.2770   86.0561   86.4872 C   0  0  0  0  0  0  0  0  0  0  0  0
  113.5924   87.0431   87.7350 C   0  0  0  0  0  0  0  0  0  0  0  0
  112.6746   86.7675   87.4494 O   0  0  0  0  0  0  0  0  0  0  0  0
  114.3936   86.6874   87.2539 N   0  0  0  0  0  0  0  0  0  0  0  0
  115.2972   86.9588   87.5350 H   0  0  0  0  0  0  0  0  0  0  0  0
  113.7090   87.6745   88.5017 C   0  0  0  0  0  0  0  0  0  0  0  0
  115.0957   88.7037   88.6348 C   0  0  0  0  0  0  0  0  0  0  0  0
  114.6557   89.3739   88.0371 O   0  0  0  0  0  0  0  0  0  0  0  0
  114.6223   87.8540   88.8671 N   0  0  0  0  0  0  0  0  0  0  0  0
  115.0555   87.1942   89.4556 H   0  0  0  0  0  0  0  0  0  0  0  0
  116.1447   88.9689   89.9873 N   0  0  0  0  0  0  0  0  0  0  0  0
  116.0091   88.8832   89.0003 C   0  0  0  0  0  0  0  0  0  0  0  0
  117.0763   89.1520   90.3601 H   0  0  0  0  0  0  0  0  0  0  0  0
  115.3514   88.8733   90.6213 H   0  0  0  0  0  0  0  0  0  0  0  0
  116.7868   88.9769   88.3787 C   0  0  0  0  0  0  0  0  0  0  0  0
  116.9739   88.2657   87.7012 O   0  0  0  0  0  0  0  0  0  0  0  0
  117.3774   89.7819   88.4348 C   0  0  0  0  0  0  0  0  0  0  0  0
  116.4010   87.4848   87.6469 H   0  0  0  0  0  0  0  0  0  0  0  0
  112.9122   88.1263   88.9029 C   0  0  0  0  0  0  0  0  0  0  0  0
  112.6455   87.9254   89.8455 C   0  0  0  0  0  0  0  0  0  0  0  0
  111.9779   88.5066   90.3110 C   0  0  0  0  0  0  0  0  0  0  0  0
  111.0331   88.5424   89.9853 O   0  0  0  0  0  0  0  0  0  0  0  0
  112.2551   89.0518   91.1021 N   0  0  0  0  0  0  0  0  0  0  0  0
  113.1852   89.0165   91.4227 H   0  0  0  0  0  0  0  0  0  0  0  0
  111.5979   89.6239   91.5603 H   0  0  0  0  0  0  0  0  0  0  0  0
  114.0363   86.4073   85.5824 C   0  0  0  0  0  0  0  0  0  0  0  0
  114.6833   86.9813   85.0805 C   0  0  0  0  0  0  0  0  0  0  0  0
  114.4087   87.4088   84.2193 C   0  0  0  0  0  0  0  0  0  0  0  0
  113.5375   87.8960   84.1583 O   0  0  0  0  0  0  0  0  0  0  0  0
  115.0053   87.3492   83.4189 N   0  0  0  0  0  0  0  0  0  0  0  0
  115.8630   86.8696   83.4789 H   0  0  0  0  0  0  0  0  0  0  0  0
  114.7348   87.7701   82.5709 H   0  0  0  0  0  0  0  0  0  0  0  0
  112.4526   80.7721   85.4496 C   0  0  0  0  0  0  0  0  0  0  0  0
  112.4081   80.0139   86.1001 O   0  0  0  0  0  0  0  0  0  0  0  0
  112.8073   79.1586   85.8761 H   0  0  0  0  0  0  0  0  0  0  0  0
  108.8571   82.3045   85.8460 C   0  0  0  0  0  0  0  0  0  0  0  0
  108.4606   82.5739   86.7236 C   0  0  0  0  0  0  0  0  0  0  0  0
  108.6132   82.1202   87.6016 C   0  0  0  0  0  0  0  0  0  0  0  0
  108.0887   82.6102   88.2980 N   0  0  0  0  0  0  0  0  0  0  0  0
  107.6119   83.3668   87.8502 C   0  0  0  0  0  0  0  0  0  0  0  0
  107.8418   83.3442   86.8772 N   0  0  0  0  0  0  0  0  0  0  0  0
  107.5161   83.9706   86.1911 H   0  0  0  0  0  0  0  0  0  0  0  0
 95 96  1  0  0  0
 95 97  1  0  0  0
 95 98  1  0  0  0
 96 91  1  0  0  0
 96 99  1  0  0  0
 91 92  2  0  0  0
 91 93  1  0  0  0
 93 90  1  0  0  0
 93 94  1  0  0  0
 90103  1  0  0  0
 90 86  1  0  0  0
103104  1  0  0  0
104105  1  0  0  0
105106  2  0  0  0
105107  1  0  0  0
107108  1  0  0  0
107109  1  0  0  0
 86 87  2  0  0  0
 86 88  1  0  0  0
 88 85  1  0  0  0
 88 89  1  0  0  0
 85110  1  0  0  0
 85 81  1  0  0  0
110111  1  0  0  0
111112  1  0  0  0
112113  2  0  0  0
112114  1  0  0  0
114115  1  0  0  0
114116  1  0  0  0
 81 82  2  0  0  0
 81 83  1  0  0  0
 83 79  1  0  0  0
 83 84  1  0  0  0
 79 80  1  0  0  0
 79 75  1  0  0  0
 75 76  2  0  0  0
 75 77  1  0  0  0
 77 74  1  0  0  0
 77 78  1  0  0  0
 74117  1  0  0  0
 74 70  1  0  0  0
117118  1  0  0  0
118119  1  0  0  0
 70 71  2  0  0  0
 70 72  1  0  0  0
 72 69  1  0  0  0
 72 73  1  0  0  0
 69120  1  0  0  0
 69 65  1  0  0  0
120121  1  0  0  0
121125  1  0  0  0
121122  2  0  0  0
122123  1  0  0  0
123124  2  0  0  0
124125  1  0  0  0
125126  1  0  0  0
 65 66  2  0  0  0
 65 67  1  0  0  0
 67  1  1  0  0  0
 67 68  1  0  0  0
  1  2  1  0  0  0
  1 10  1  0  0  0
  2  8  2  0  0  0
  2  3  1  0  0  0
  3  4  2  0  0  0
  4  5  1  0  0  0
  5  6  1  0  0  0
  5  7  2  0  0  0
  6  9  1  0  0  0
  7  8  1  0  0  0
 10 11  2  0  0  0
 10 12  1  0  0  0
 12 14  1  0  0  0
 12 13  1  0  0  0
 14 58  1  0  0  0
 14 15  1  0  0  0
 58 59  1  0  0  0
 59 60  1  0  0  0
 60 61  1  0  0  0
 61 62  1  0  0  0
 62 63  1  0  0  0
 62 64  1  0  0  0
 15 16  2  0  0  0
 15 17  1  0  0  0
 17 19  1  0  0  0
 17 18  1  0  0  0
 19 51  1  0  0  0
 19 20  1  0  0  0
 51 52  1  0  0  0
 52 53  1  0  0  0
 53 54  2  0  0  0
 53 55  1  0  0  0
 55 56  1  0  0  0
 55 57  1  0  0  0
 20 21  2  0  0  0
 20 22  1  0  0  0
 22 24  1  0  0  0
 22 23  1  0  0  0
 24 44  1  0  0  0
 24 25  1  0  0  0
 44 45  1  0  0  0
 45 49  1  0  0  0
 45 46  2  0  0  0
 46 47  1  0  0  0
 47 48  2  0  0  0
 48 49  1  0  0  0
 49 50  1  0  0  0
 25 26  2  0  0  0
 25 27  1  0  0  0
 27 29  1  0  0  0
 27 28  1  0  0  0
 29 41  1  0  0  0
 29 30  1  0  0  0
 41 42  1  0  0  0
 42 43  1  0  0  0
 30 31  2  0  0  0
 30 32  1  0  0  0
 32 36  1  0  0  0
 32 33  1  0  0  0
 33 34  1  0  0  0
 34 35  1  0  0  0
 35 36  1  0  0  0
 36 37  1  0  0  0
 37 38  1  0  0  0
 37 39  2  0  0  0
 38 40  1  0  0  0
 99100  1  0  0  0
 99101  1  0  0  0
100102  1  0  0  0
M  END
> <minimizedAffinity>
-7.87375

$$$$



126129  0  0  0  0  0  0  0  0999 V2000
  114.1972   87.5958   87.9346 C   0  0  0  0  0  0  0  0  0  0  0  0
  113.7755   88.0952   88.6913 C   0  0  0  0  0  0  0  0  0  0  0  0
  113.8291   89.0933   88.7232 C   0  0  0  0  0  0  0  0  0  0  0  0
  113.4073   89.5927   89.4800 C   0  0  0  0  0  0  0  0  0  0  0  0
  112.9320   89.0941   90.2049 C   0  0  0  0  0  0  0  0  0  0  0  0
  112.5103   89.5936   90.9616 O   0  0  0  0  0  0  0  0  0  0  0  0
  112.8784   88.0961   90.1730 C   0  0  0  0  0  0  0  0  0  0  0  0
  113.3001   87.5966   89.4163 C   0  0  0  0  0  0  0  0  0  0  0  0
  112.5605   90.5287   90.9915 H   0  0  0  0  0  0  0  0  0  0  0  0
  115.0275   87.0606   88.0899 C   0  0  0  0  0  0  0  0  0  0  0  0
  115.1782   86.6162   88.9730 O   0  0  0  0  0  0  0  0  0  0  0  0
  115.7072   86.9698   87.3620 N   0  0  0  0  0  0  0  0  0  0  0  0
  115.5589   87.4072   86.4926 H   0  0  0  0  0  0  0  0  0  0  0  0
  116.5376   86.4346   87.5173 C   0  0  0  0  0  0  0  0  0  0  0  0
  117.4280   86.8891   87.5429 C   0  0  0  0  0  0  0  0  0  0  0  0
  117.8576   87.1954   86.6934 O   0  0  0  0  0  0  0  0  0  0  0  0
  117.8887   87.0374   88.4179 N   0  0  0  0  0  0  0  0  0  0  0  0
  117.4657   86.7359   89.2542 H   0  0  0  0  0  0  0  0  0  0  0  0
  118.7790   87.4919   88.4435 C   0  0  0  0  0  0  0  0  0  0  0  0
  119.6179   86.9479   88.4590 C   0  0  0  0  0  0  0  0  0  0  0  0
  119.7737   86.2901   89.1960 O   0  0  0  0  0  0  0  0  0  0  0  0
  120.3011   87.0615   87.7376 N   0  0  0  0  0  0  0  0  0  0  0  0
  120.1477   87.7091   87.0121 H   0  0  0  0  0  0  0  0  0  0  0  0
  121.1399   86.5175   87.7531 C   0  0  0  0  0  0  0  0  0  0  0  0
  121.1585   85.6150   87.3228 C   0  0  0  0  0  0  0  0  0  0  0  0
  120.7342   85.4791   86.4276 O   0  0  0  0  0  0  0  0  0  0  0  0
  121.6015   84.8484   87.7877 N   0  0  0  0  0  0  0  0  0  0  0  0
  122.0193   84.9823   88.6690 H   0  0  0  0  0  0  0  0  0  0  0  0
  121.6201   83.9459   87.3574 C   0  0  0  0  0  0  0  0  0  0  0  0
  120.9884   83.2334   87.6626 C   0  0  0  0  0  0  0  0  0  0  0  0
  120.2485   82.9304   87.0620 O   0  0  0  0  0  0  0  0  0  0  0  0
  121.0967   82.8237   88.5684 N   0  0  0  0  0  0  0  0  0  0  0  0
  121.8010   83.0572   89.2387 C   0  0  0  0  0  0  0  0  0  0  0  0
  121.6592   82.4864   90.0475 C   0  0  0  0  0  0  0  0  0  0  0  0
  120.8673   81.9001   89.8769 C   0  0  0  0  0  0  0  0  0  0  0  0
  120.5196   82.1086   88.9628 C   0  0  0  0  0  0  0  0  0  0  0  0
  119.7331   81.6776   88.5208 C   0  0  0  0  0  0  0  0  0  0  0  0
  118.8181   82.0626   88.6423 O   0  0  0  0  0  0  0  0  0  0  0  0
  119.8613   80.8615   87.9572 O   0  0  0  0  0  0  0  0  0  0  0  0
  118.6980   82.8272   89.1703 H   0  0  0  0  0  0  0  0  0  0  0  0
  122.2705   83.7560   86.6218 C   0  0  0  0  0  0  0  0  0  0  0  0
  123.2421   83.6438   86.8300 S   0  0  0  0  0  0  0  0  0  0  0  0
  123.6791   83.7494   88.1136 H   0  0  0  0  0  0  0  0  0  0  0  0
  121.9602   86.8758   88.1989 C   0  0  0  0  0  0  0  0  0  0  0  0
  122.4783   87.6168   87.7716 C   0  0  0  0  0  0  0  0  0  0  0  0
  123.1795   87.5130   87.0663 C   0  0  0  0  0  0  0  0  0  0  0  0
  123.5207   88.4236   86.8333 N   0  0  0  0  0  0  0  0  0  0  0  0
  123.0304   89.0903   87.3947 C   0  0  0  0  0  0  0  0  0  0  0  0
  122.3861   88.5916   87.9746 N   0  0  0  0  0  0  0  0  0  0  0  0
  121.7693   88.9904   88.6302 H   0  0  0  0  0  0  0  0  0  0  0  0
  118.8305   88.4906   88.4536 C   0  0  0  0  0  0  0  0  0  0  0  0
  118.3732   89.0075   89.1772 C   0  0  0  0  0  0  0  0  0  0  0  0
  118.4292   90.0059   89.1904 C   0  0  0  0  0  0  0  0  0  0  0  0
  119.0871   90.4775   88.6031 O   0  0  0  0  0  0  0  0  0  0  0  0
  117.8275   90.5326   89.7908 N   0  0  0  0  0  0  0  0  0  0  0  0
  117.1799   90.0682   90.3689 H   0  0  0  0  0  0  0  0  0  0  0  0
  117.8827   91.5154   89.8038 H   0  0  0  0  0  0  0  0  0  0  0  0
  116.4776   85.4448   87.6469 C   0  0  0  0  0  0  0  0  0  0  0  0
  116.5043   84.8343   86.8553 C   0  0  0  0  0  0  0  0  0  0  0  0
  116.3495   83.8536   86.9747 C   0  0  0  0  0  0  0  0  0  0  0  0
  116.3880   83.2415   86.1849 C   0  0  0  0  0  0  0  0  0  0  0  0
  115.8398   83.4389   85.3722 N   0  0  0  0  0  0  0  0  0  0  0  0
  115.2414   84.2646   85.3488 H   0  0  0  0  0  0  0  0  0  0  0  0
  115.8791   82.8145   84.5666 H   0  0  0  0  0  0  0  0  0  0  0  0
  113.2071   86.8823   86.7055 C   0  0  0  0  0  0  0  0  0  0  0  0
  113.0341   86.0973   87.3005 O   0  0  0  0  0  0  0  0  0  0  0  0
  113.7886   87.6315   87.0226 N   0  0  0  0  0  0  0  0  0  0  0  0
  113.9589   88.4042   86.4369 H   0  0  0  0  0  0  0  0  0  0  0  0
  112.7985   86.9180   85.7935 C   0  0  0  0  0  0  0  0  0  0  0  0
  113.8829   86.6610   84.4677 C   0  0  0  0  0  0  0  0  0  0  0  0
  113.9137   85.6848   84.6821 O   0  0  0  0  0  0  0  0  0  0  0  0
  113.3252   87.2776   85.0234 N   0  0  0  0  0  0  0  0  0  0  0  0
  113.2948   88.2388   84.8123 H   0  0  0  0  0  0  0  0  0  0  0  0
  114.4097   87.0206   83.6975 C   0  0  0  0  0  0  0  0  0  0  0  0
  113.8321   87.5592   82.1560 C   0  0  0  0  0  0  0  0  0  0  0  0
  113.8214   88.5019   82.4894 O   0  0  0  0  0  0  0  0  0  0  0  0
  114.1262   86.8185   82.7600 N   0  0  0  0  0  0  0  0  0  0  0  0
  114.1367   85.8904   82.4319 H   0  0  0  0  0  0  0  0  0  0  0  0
  113.5486   87.3571   81.2185 C   0  0  0  0  0  0  0  0  0  0  0  0
  113.2069   88.0902   80.6305 C   0  0  0  0  0  0  0  0  0  0  0  0
  112.8497   86.0376   80.3409 C   0  0  0  0  0  0  0  0  0  0  0  0
  112.0345   86.5884   80.1620 O   0  0  0  0  0  0  0  0  0  0  0  0
  113.6068   86.4220   80.8691 N   0  0  0  0  0  0  0  0  0  0  0  0
  114.4094   85.8797   81.0452 H   0  0  0  0  0  0  0  0  0  0  0  0
  112.9079   85.1024   79.9914 C   0  0  0  0  0  0  0  0  0  0  0  0
  114.4340   84.5078   79.4281 C   0  0  0  0  0  0  0  0  0  0  0  0
  114.3033   84.9921   78.5630 O   0  0  0  0  0  0  0  0  0  0  0  0
  113.7362   84.5629   80.1423 N   0  0  0  0  0  0  0  0  0  0  0  0
  113.8648   84.0861   80.9939 H   0  0  0  0  0  0  0  0  0  0  0  0
  115.2623   83.9683   79.5789 C   0  0  0  0  0  0  0  0  0  0  0  0
  116.2959   84.4259   80.8913 C   0  0  0  0  0  0  0  0  0  0  0  0
  116.6553   85.1821   80.3446 O   0  0  0  0  0  0  0  0  0  0  0  0
  115.5994   83.8189   80.5084 N   0  0  0  0  0  0  0  0  0  0  0  0
  115.2456   83.0743   81.0466 H   0  0  0  0  0  0  0  0  0  0  0  0
  115.9948   84.2805   82.5908 N   0  0  0  0  0  0  0  0  0  0  0  0
  116.6329   84.2765   81.8209 C   0  0  0  0  0  0  0  0  0  0  0  0
  116.3385   84.1281   83.5390 H   0  0  0  0  0  0  0  0  0  0  0  0
  115.0001   84.4370   82.4279 H   0  0  0  0  0  0  0  0  0  0  0  0
  117.6081   84.1231   81.9806 C   0  0  0  0  0  0  0  0  0  0  0  0
  118.0455   83.2905   81.6408 O   0  0  0  0  0  0  0  0  0  0  0  0
  118.1458   84.8022   82.4801 C   0  0  0  0  0  0  0  0  0  0  0  0
  117.5238   82.6316   81.1562 H   0  0  0  0  0  0  0  0  0  0  0  0
  115.7536   83.5781   78.8002 C   0  0  0  0  0  0  0  0  0  0  0  0
  115.6902   82.5987   78.6088 C   0  0  0  0  0  0  0  0  0  0  0  0
  116.2497   82.1931   77.8859 C   0  0  0  0  0  0  0  0  0  0  0  0
  116.2163   82.5666   76.9589 O   0  0  0  0  0  0  0  0  0  0  0  0
  116.8426   81.4142   78.0902 N   0  0  0  0  0  0  0  0  0  0  0  0
  116.8754   81.0466   79.0028 H   0  0  0  0  0  0  0  0  0  0  0  0
  117.3934   81.0150   77.3785 H   0  0  0  0  0  0  0  0  0  0  0  0
  112.1377   84.7067   79.4912 C   0  0  0  0  0  0  0  0  0  0  0  0
  111.5001   84.0939   79.9581 C   0  0  0  0  0  0  0  0  0  0  0  0
  110.7471   83.6749   79.4507 C   0  0  0  0  0  0  0  0  0  0  0  0
  110.6789   82.6792   79.3888 O   0  0  0  0  0  0  0  0  0  0  0  0
  110.0623   84.2517   79.0052 N   0  0  0  0  0  0  0  0  0  0  0  0
  110.1295   85.2320   79.0662 H   0  0  0  0  0  0  0  0  0  0  0  0
  109.3210   83.8391   78.5057 H   0  0  0  0  0  0  0  0  0  0  0  0
  115.2199   87.5823   83.8648 C   0  0  0  0  0  0  0  0  0  0  0  0
  116.0834   87.1496   84.1240 O   0  0  0  0  0  0  0  0  0  0  0  0
  116.8694   87.6945   84.2863 H   0  0  0  0  0  0  0  0  0  0  0  0
  111.8630   86.5941   85.6517 C   0  0  0  0  0  0  0  0  0  0  0  0
  111.1050   87.2462   85.6362 C   0  0  0  0  0  0  0  0  0  0  0  0
  110.7224   87.6834   84.8224 C   0  0  0  0  0  0  0  0  0  0  0  0
  109.9774   88.2830   85.1150 N   0  0  0  0  0  0  0  0  0  0  0  0
  109.8997   88.2162   86.1098 C   0  0  0  0  0  0  0  0  0  0  0  0
  110.5966   87.5754   86.4318 N   0  0  0  0  0  0  0  0  0  0  0  0
  110.7544   87.3145   87.3679 H   0  0  0  0  0  0  0  0  0  0  0  0
 95 96  1  0  0  0
 95 97  1  0  0  0
 95 98  1  0  0  0
 96 91  1  0  0  0
 96 99  1  0  0  0
 91 92  2  0  0  0
 91 93  1  0  0  0
 93 90  1  0  0  0
 93 94  1  0  0  0
 90103  1  0  0  0
 90 86  1  0  0  0
103104  1  0  0  0
104105  1  0  0  0
105106  2  0  0  0
105107  1  0  0  0
107108  1  0  0  0
107109  1  0  0  0
 86 87  2  0  0  0
 86 88  1  0  0  0
 88 85  1  0  0  0
 88 89  1  0  0  0
 85110  1  0  0  0
 85 81  1  0  0  0
110111  1  0  0  0
111112  1  0  0  0
112113  2  0  0  0
112114  1  0  0  0
114115  1  0  0  0
114116  1  0  0  0
 81 82  2  0  0  0
 81 83  1  0  0  0
 83 79  1  0  0  0
 83 84  1  0  0  0
 79 80  1  0  0  0
 79 75  1  0  0  0
 75 76  2  0  0  0
 75 77  1  0  0  0
 77 74  1  0  0  0
 77 78  1  0  0  0
 74117  1  0  0  0
 74 70  1  0  0  0
117118  1  0  0  0
118119  1  0  0  0
 70 71  2  0  0  0
 70 72  1  0  0  0
 72 69  1  0  0  0
 72 73  1  0  0  0
 69120  1  0  0  0
 69 65  1  0  0  0
120121  1  0  0  0
121125  1  0  0  0
121122  2  0  0  0
122123  1  0  0  0
123124  2  0  0  0
124125  1  0  0  0
125126  1  0  0  0
 65 66  2  0  0  0
 65 67  1  0  0  0
 67  1  1  0  0  0
 67 68  1  0  0  0
  1  2  1  0  0  0
  1 10  1  0  0  0
  2  8  2  0  0  0
  2  3  1  0  0  0
  3  4  2  0  0  0
  4  5  1  0  0  0
  5  6  1  0  0  0
  5  7  2  0  0  0
  6  9  1  0  0  0
  7  8  1  0  0  0
 10 11  2  0  0  0
 10 12  1  0  0  0
 12 14  1  0  0  0
 12 13  1  0  0  0
 14 58  1  0  0  0
 14 15  1  0  0  0
 58 59  1  0  0  0
 59 60  1  0  0  0
 60 61  1  0  0  0
 61 62  1  0  0  0
 62 63  1  0  0  0
 62 64  1  0  0  0
 15 16  2  0  0  0
 15 17  1  0  0  0
 17 19  1  0  0  0
 17 18  1  0  0  0
 19 51  1  0  0  0
 19 20  1  0  0  0
 51 52  1  0  0  0
 52 53  1  0  0  0
 53 54  2  0  0  0
 53 55  1  0  0  0
 55 56  1  0  0  0
 55 57  1  0  0  0
 20 21  2  0  0  0
 20 22  1  0  0  0
 22 24  1  0  0  0
 22 23  1  0  0  0
 24 44  1  0  0  0
 24 25  1  0  0  0
 44 45  1  0  0  0
 45 49  1  0  0  0
 45 46  2  0  0  0
 46 47  1  0  0  0
 47 48  2  0  0  0
 48 49  1  0  0  0
 49 50  1  0  0  0
 25 26  2  0  0  0
 25 27  1  0  0  0
 27 29  1  0  0  0
 27 28  1  0  0  0
 29 41  1  0  0  0
 29 30  1  0  0  0
 41 42  1  0  0  0
 42 43  1  0  0  0
 30 31  2  0  0  0
 30 32  1  0  0  0
 32 36  1  0  0  0
 32 33  1  0  0  0
 33 34  1  0  0  0
 34 35  1  0  0  0
 35 36  1  0  0  0
 36 37  1  0  0  0
 37 38  1  0  0  0
 37 39  2  0  0  0
 38 40  1  0  0  0
 99100  1  0  0  0
 99101  1  0  0  0
100102  1  0  0  0
M  END
> <minimizedAffinity>
-7.81593

$$$$



126129  0  0  0  0  0  0  0  0999 V2000
  113.1520   88.4544   88.0124 C   0  0  0  0  0  0  0  0  0  0  0  0
  112.5986   88.7004   88.8082 C   0  0  0  0  0  0  0  0  0  0  0  0
  112.2755   87.9886   89.4319 C   0  0  0  0  0  0  0  0  0  0  0  0
  111.7221   88.2347   90.2277 C   0  0  0  0  0  0  0  0  0  0  0  0
  111.4919   89.1925   90.3998 C   0  0  0  0  0  0  0  0  0  0  0  0
  110.9386   89.4385   91.1956 O   0  0  0  0  0  0  0  0  0  0  0  0
  111.8150   89.9043   89.7761 C   0  0  0  0  0  0  0  0  0  0  0  0
  112.3684   89.6583   88.9803 C   0  0  0  0  0  0  0  0  0  0  0  0
  110.6358   88.7716   91.7799 H   0  0  0  0  0  0  0  0  0  0  0  0
  114.0917   88.1356   88.1361 C   0  0  0  0  0  0  0  0  0  0  0  0
  114.2924   87.4176   88.8026 O   0  0  0  0  0  0  0  0  0  0  0  0
  114.8306   88.5348   87.5933 N   0  0  0  0  0  0  0  0  0  0  0  0
  114.6329   89.2416   86.9372 H   0  0  0  0  0  0  0  0  0  0  0  0
  115.7704   88.2160   87.7170 C   0  0  0  0  0  0  0  0  0  0  0  0
  116.1471   87.5206   87.1051 C   0  0  0  0  0  0  0  0  0  0  0  0
  116.2287   87.7073   86.1261 O   0  0  0  0  0  0  0  0  0  0  0  0
  116.4422   86.6384   87.4722 N   0  0  0  0  0  0  0  0  0  0  0  0
  116.3618   86.4547   88.4360 H   0  0  0  0  0  0  0  0  0  0  0  0
  116.8189   85.9430   86.8602 C   0  0  0  0  0  0  0  0  0  0  0  0
  116.2358   85.2030   86.5252 C   0  0  0  0  0  0  0  0  0  0  0  0
  115.4492   84.9029   87.0649 O   0  0  0  0  0  0  0  0  0  0  0  0
  116.4391   84.7630   85.6504 N   0  0  0  0  0  0  0  0  0  0  0  0
  117.2135   85.0585   85.1192 H   0  0  0  0  0  0  0  0  0  0  0  0
  115.8560   84.0230   85.3154 C   0  0  0  0  0  0  0  0  0  0  0  0
  115.9811   83.0927   85.6602 C   0  0  0  0  0  0  0  0  0  0  0  0
  115.1845   82.5232   85.8626 O   0  0  0  0  0  0  0  0  0  0  0  0
  116.9028   82.7320   85.8027 N   0  0  0  0  0  0  0  0  0  0  0  0
  117.6871   83.2928   85.6035 H   0  0  0  0  0  0  0  0  0  0  0  0
  117.0280   81.8018   86.1475 C   0  0  0  0  0  0  0  0  0  0  0  0
  117.6132   81.6373   86.9415 C   0  0  0  0  0  0  0  0  0  0  0  0
  118.6080   81.6691   86.8445 O   0  0  0  0  0  0  0  0  0  0  0  0
  117.2037   81.4410   87.8325 N   0  0  0  0  0  0  0  0  0  0  0  0
  116.2250   81.3876   88.0306 C   0  0  0  0  0  0  0  0  0  0  0  0
  116.1175   81.1773   89.0023 C   0  0  0  0  0  0  0  0  0  0  0  0
  117.0297   81.1007   89.4047 C   0  0  0  0  0  0  0  0  0  0  0  0
  117.7010   81.2637   88.6817 C   0  0  0  0  0  0  0  0  0  0  0  0
  118.6951   81.2515   88.7891 C   0  0  0  0  0  0  0  0  0  0  0  0
  119.1807   82.0875   89.0448 O   0  0  0  0  0  0  0  0  0  0  0  0
  119.2037   80.4033   88.6408 O   0  0  0  0  0  0  0  0  0  0  0  0
  118.7042   82.8822   89.1837 H   0  0  0  0  0  0  0  0  0  0  0  0
  116.5678   81.0359   85.6984 C   0  0  0  0  0  0  0  0  0  0  0  0
  117.0316   80.5314   84.9701 S   0  0  0  0  0  0  0  0  0  0  0  0
  118.2882   80.8869   84.5904 H   0  0  0  0  0  0  0  0  0  0  0  0
  115.1477   84.2132   84.6356 C   0  0  0  0  0  0  0  0  0  0  0  0
  115.3693   84.1832   83.6609 C   0  0  0  0  0  0  0  0  0  0  0  0
  114.9719   83.5606   82.9867 C   0  0  0  0  0  0  0  0  0  0  0  0
  115.3841   83.7630   82.0984 N   0  0  0  0  0  0  0  0  0  0  0  0
  116.0363   84.5108   82.2235 C   0  0  0  0  0  0  0  0  0  0  0  0
  116.0271   84.7704   83.1893 N   0  0  0  0  0  0  0  0  0  0  0  0
  116.5703   85.4796   83.6029 H   0  0  0  0  0  0  0  0  0  0  0  0
  117.7788   85.9877   86.5833 C   0  0  0  0  0  0  0  0  0  0  0  0
  118.4980   85.7340   87.2301 C   0  0  0  0  0  0  0  0  0  0  0  0
  119.3027   85.2329   86.9117 C   0  0  0  0  0  0  0  0  0  0  0  0
  119.6624   85.3964   85.9930 O   0  0  0  0  0  0  0  0  0  0  0  0
  119.7476   84.5683   87.5120 N   0  0  0  0  0  0  0  0  0  0  0  0
  119.3934   84.4074   88.4164 H   0  0  0  0  0  0  0  0  0  0  0  0
  120.5399   84.0749   87.1986 H   0  0  0  0  0  0  0  0  0  0  0  0
  116.3334   88.5927   88.4526 C   0  0  0  0  0  0  0  0  0  0  0  0
  116.7873   89.4757   88.3328 C   0  0  0  0  0  0  0  0  0  0  0  0
  117.5427   89.7353   88.9344 C   0  0  0  0  0  0  0  0  0  0  0  0
  117.7575   90.7011   89.0791 C   0  0  0  0  0  0  0  0  0  0  0  0
  118.7100   91.0056   89.0886 N   0  0  0  0  0  0  0  0  0  0  0  0
  119.4624   90.3308   88.9508 H   0  0  0  0  0  0  0  0  0  0  0  0
  118.9291   91.9907   89.2362 H   0  0  0  0  0  0  0  0  0  0  0  0
  112.4500   87.7064   86.6168 C   0  0  0  0  0  0  0  0  0  0  0  0
  112.5207   86.8128   87.0602 O   0  0  0  0  0  0  0  0  0  0  0  0
  112.7656   88.5272   87.0929 N   0  0  0  0  0  0  0  0  0  0  0  0
  112.6960   89.4069   86.6565 H   0  0  0  0  0  0  0  0  0  0  0  0
  112.0636   87.7792   85.6973 C   0  0  0  0  0  0  0  0  0  0  0  0
  112.9971   87.9370   84.2469 C   0  0  0  0  0  0  0  0  0  0  0  0
  112.9853   88.9319   84.3476 O   0  0  0  0  0  0  0  0  0  0  0  0
  112.5362   87.3607   84.9218 N   0  0  0  0  0  0  0  0  0  0  0  0
  112.5478   86.3812   84.8228 H   0  0  0  0  0  0  0  0  0  0  0  0
  113.4697   87.5185   83.4714 C   0  0  0  0  0  0  0  0  0  0  0  0
  112.9743   86.7584   81.9960 C   0  0  0  0  0  0  0  0  0  0  0  0
  113.3060   87.5471   81.4784 O   0  0  0  0  0  0  0  0  0  0  0  0
  113.0562   86.7442   82.9925 N   0  0  0  0  0  0  0  0  0  0  0  0
  112.7296   85.9677   83.5022 H   0  0  0  0  0  0  0  0  0  0  0  0
  112.5608   85.9841   81.5171 C   0  0  0  0  0  0  0  0  0  0  0  0
  112.4618   86.0064   80.5223 C   0  0  0  0  0  0  0  0  0  0  0  0
  111.2737   84.9554   82.0510 C   0  0  0  0  0  0  0  0  0  0  0  0
  110.6157   85.5202   81.5529 O   0  0  0  0  0  0  0  0  0  0  0  0
  112.2462   85.1873   82.0331 N   0  0  0  0  0  0  0  0  0  0  0  0
  112.8940   84.6313   82.5234 H   0  0  0  0  0  0  0  0  0  0  0  0
  110.9590   84.1585   82.5669 C   0  0  0  0  0  0  0  0  0  0  0  0
  110.5507   82.7171   81.6977 C   0  0  0  0  0  0  0  0  0  0  0  0
  111.5216   82.4936   81.6123 O   0  0  0  0  0  0  0  0  0  0  0  0
  110.2694   83.5496   82.1750 N   0  0  0  0  0  0  0  0  0  0  0  0
  109.3135   83.7697   82.2592 H   0  0  0  0  0  0  0  0  0  0  0  0
  109.8610   82.1082   81.3058 C   0  0  0  0  0  0  0  0  0  0  0  0
  109.4082   80.7017   82.2096 C   0  0  0  0  0  0  0  0  0  0  0  0
  108.8386   81.2679   82.8054 O   0  0  0  0  0  0  0  0  0  0  0  0
  109.9194   81.1219   81.4598 N   0  0  0  0  0  0  0  0  0  0  0  0
  110.4802   80.5645   80.8732 H   0  0  0  0  0  0  0  0  0  0  0  0
  110.0531   79.3565   83.0897 N   0  0  0  0  0  0  0  0  0  0  0  0
  109.4666   79.7153   82.3636 C   0  0  0  0  0  0  0  0  0  0  0  0
  110.1128   78.3505   83.2468 H   0  0  0  0  0  0  0  0  0  0  0  0
  110.5917   79.9966   83.6733 H   0  0  0  0  0  0  0  0  0  0  0  0
  108.9386   79.0878   81.7914 C   0  0  0  0  0  0  0  0  0  0  0  0
  107.9418   79.1598   81.7585 O   0  0  0  0  0  0  0  0  0  0  0  0
  109.4074   78.3883   81.2521 C   0  0  0  0  0  0  0  0  0  0  0  0
  107.4870   79.8385   82.2816 H   0  0  0  0  0  0  0  0  0  0  0  0
  109.1130   82.4856   80.7600 C   0  0  0  0  0  0  0  0  0  0  0  0
  109.0250   82.2398   79.7947 C   0  0  0  0  0  0  0  0  0  0  0  0
  108.1952   82.4804   79.2910 C   0  0  0  0  0  0  0  0  0  0  0  0
  107.7963   83.3919   79.3908 O   0  0  0  0  0  0  0  0  0  0  0  0
  107.7644   81.8094   78.6875 N   0  0  0  0  0  0  0  0  0  0  0  0
  108.1571   80.9120   78.5893 H   0  0  0  0  0  0  0  0  0  0  0  0
  106.9475   82.0462   78.1917 H   0  0  0  0  0  0  0  0  0  0  0  0
  111.3341   83.9707   83.4747 C   0  0  0  0  0  0  0  0  0  0  0  0
  110.7821   84.1465   84.2898 C   0  0  0  0  0  0  0  0  0  0  0  0
  111.1407   83.9187   85.1951 C   0  0  0  0  0  0  0  0  0  0  0  0
  110.5258   83.5729   85.9039 O   0  0  0  0  0  0  0  0  0  0  0  0
  112.1141   84.0366   85.3916 N   0  0  0  0  0  0  0  0  0  0  0  0
  112.7194   84.3770   84.6938 H   0  0  0  0  0  0  0  0  0  0  0  0
  112.4671   83.8122   86.2829 H   0  0  0  0  0  0  0  0  0  0  0  0
  114.3559   87.8744   83.1748 C   0  0  0  0  0  0  0  0  0  0  0  0
  115.1921   87.5859   83.6412 O   0  0  0  0  0  0  0  0  0  0  0  0
  116.0517   87.9312   83.3534 H   0  0  0  0  0  0  0  0  0  0  0  0
  111.2045   88.2705   85.5534 C   0  0  0  0  0  0  0  0  0  0  0  0
  110.3428   87.7660   85.4999 C   0  0  0  0  0  0  0  0  0  0  0  0
  109.8118   87.5961   84.6698 C   0  0  0  0  0  0  0  0  0  0  0  0
  109.0015   87.0678   84.9240 N   0  0  0  0  0  0  0  0  0  0  0  0
  109.0320   86.9112   85.9112 C   0  0  0  0  0  0  0  0  0  0  0  0
  109.8610   87.3427   86.2671 N   0  0  0  0  0  0  0  0  0  0  0  0
  110.1516   87.3496   87.2077 H   0  0  0  0  0  0  0  0  0  0  0  0
 95 96  1  0  0  0
 95 97  1  0  0  0
 95 98  1  0  0  0
 96 91  1  0  0  0
 96 99  1  0  0  0
 91 92  2  0  0  0
 91 93  1  0  0  0
 93 90  1  0  0  0
 93 94  1  0  0  0
 90103  1  0  0  0
 90 86  1  0  0  0
103104  1  0  0  0
104105  1  0  0  0
105106  2  0  0  0
105107  1  0  0  0
107108  1  0  0  0
107109  1  0  0  0
 86 87  2  0  0  0
 86 88  1  0  0  0
 88 85  1  0  0  0
 88 89  1  0  0  0
 85110  1  0  0  0
 85 81  1  0  0  0
110111  1  0  0  0
111112  1  0  0  0
112113  2  0  0  0
112114  1  0  0  0
114115  1  0  0  0
114116  1  0  0  0
 81 82  2  0  0  0
 81 83  1  0  0  0
 83 79  1  0  0  0
 83 84  1  0  0  0
 79 80  1  0  0  0
 79 75  1  0  0  0
 75 76  2  0  0  0
 75 77  1  0  0  0
 77 74  1  0  0  0
 77 78  1  0  0  0
 74117  1  0  0  0
 74 70  1  0  0  0
117118  1  0  0  0
118119  1  0  0  0
 70 71  2  0  0  0
 70 72  1  0  0  0
 72 69  1  0  0  0
 72 73  1  0  0  0
 69120  1  0  0  0
 69 65  1  0  0  0
120121  1  0  0  0
121125  1  0  0  0
121122  2  0  0  0
122123  1  0  0  0
123124  2  0  0  0
124125  1  0  0  0
125126  1  0  0  0
 65 66  2  0  0  0
 65 67  1  0  0  0
 67  1  1  0  0  0
 67 68  1  0  0  0
  1  2  1  0  0  0
  1 10  1  0  0  0
  2  8  2  0  0  0
  2  3  1  0  0  0
  3  4  2  0  0  0
  4  5  1  0  0  0
  5  6  1  0  0  0
  5  7  2  0  0  0
  6  9  1  0  0  0
  7  8  1  0  0  0
 10 11  2  0  0  0
 10 12  1  0  0  0
 12 14  1  0  0  0
 12 13  1  0  0  0
 14 58  1  0  0  0
 14 15  1  0  0  0
 58 59  1  0  0  0
 59 60  1  0  0  0
 60 61  1  0  0  0
 61 62  1  0  0  0
 62 63  1  0  0  0
 62 64  1  0  0  0
 15 16  2  0  0  0
 15 17  1  0  0  0
 17 19  1  0  0  0
 17 18  1  0  0  0
 19 51  1  0  0  0
 19 20  1  0  0  0
 51 52  1  0  0  0
 52 53  1  0  0  0
 53 54  2  0  0  0
 53 55  1  0  0  0
 55 56  1  0  0  0
 55 57  1  0  0  0
 20 21  2  0  0  0
 20 22  1  0  0  0
 22 24  1  0  0  0
 22 23  1  0  0  0
 24 44  1  0  0  0
 24 25  1  0  0  0
 44 45  1  0  0  0
 45 49  1  0  0  0
 45 46  2  0  0  0
 46 47  1  0  0  0
 47 48  2  0  0  0
 48 49  1  0  0  0
 49 50  1  0  0  0
 25 26  2  0  0  0
 25 27  1  0  0  0
 27 29  1  0  0  0
 27 28  1  0  0  0
 29 41  1  0  0  0
 29 30  1  0  0  0
 41 42  1  0  0  0
 42 43  1  0  0  0
 30 31  2  0  0  0
 30 32  1  0  0  0
 32 36  1  0  0  0
 32 33  1  0  0  0
 33 34  1  0  0  0
 34 35  1  0  0  0
 35 36  1  0  0  0
 36 37  1  0  0  0
 37 38  1  0  0  0
 37 39  2  0  0  0
 38 40  1  0  0  0
 99100  1  0  0  0
 99101  1  0  0  0
100102  1  0  0  0
M  END
> <minimizedAffinity>
-7.78309

$$$$



126129  0  0  0  0  0  0  0  0999 V2000
  117.0097  113.8975  105.5062 C   0  0  0  0  0  0  0  0  0  0  0  0
  116.4008  113.1074  105.5768 C   0  0  0  0  0  0  0  0  0  0  0  0
  115.8850  112.8005  104.7769 C   0  0  0  0  0  0  0  0  0  0  0  0
  115.2761  112.0104  104.8476 C   0  0  0  0  0  0  0  0  0  0  0  0
  115.1829  111.5273  105.7181 C   0  0  0  0  0  0  0  0  0  0  0  0
  114.5739  110.7372  105.7888 O   0  0  0  0  0  0  0  0  0  0  0  0
  115.6986  111.8342  106.5180 C   0  0  0  0  0  0  0  0  0  0  0  0
  116.3075  112.6242  106.4474 C   0  0  0  0  0  0  0  0  0  0  0  0
  114.0907  110.4497  105.0393 H   0  0  0  0  0  0  0  0  0  0  0  0
  117.9728  113.8108  105.7610 C   0  0  0  0  0  0  0  0  0  0  0  0
  118.2284  113.7085  106.7223 O   0  0  0  0  0  0  0  0  0  0  0  0
  118.6802  113.8264  105.0544 N   0  0  0  0  0  0  0  0  0  0  0  0
  118.4286  113.9271  104.1080 H   0  0  0  0  0  0  0  0  0  0  0  0
  119.6434  113.7397  105.3092 C   0  0  0  0  0  0  0  0  0  0  0  0
  120.0811  112.8406  105.3112 C   0  0  0  0  0  0  0  0  0  0  0  0
  119.7440  112.1191  104.7064 O   0  0  0  0  0  0  0  0  0  0  0  0
  120.8560  112.6630  105.9179 N   0  0  0  0  0  0  0  0  0  0  0  0
  121.1878  113.3734  106.5132 H   0  0  0  0  0  0  0  0  0  0  0  0
  121.2937  111.7640  105.9198 C   0  0  0  0  0  0  0  0  0  0  0  0
  121.1776  111.1531  106.7030 C   0  0  0  0  0  0  0  0  0  0  0  0
  121.5312  111.4176  107.6002 O   0  0  0  0  0  0  0  0  0  0  0  0
  120.7079  110.2776  106.5890 N   0  0  0  0  0  0  0  0  0  0  0  0
  120.3598  110.0171  105.7057 H   0  0  0  0  0  0  0  0  0  0  0  0
  120.5919  109.6667  107.3721 C   0  0  0  0  0  0  0  0  0  0  0  0
  119.7240  109.6496  107.8685 C   0  0  0  0  0  0  0  0  0  0  0  0
  118.8900  109.3469  107.4072 O   0  0  0  0  0  0  0  0  0  0  0  0
  119.6901  109.9351  108.8263 N   0  0  0  0  0  0  0  0  0  0  0  0
  120.5111  110.2331  109.2805 H   0  0  0  0  0  0  0  0  0  0  0  0
  118.8222  109.9179  109.3227 C   0  0  0  0  0  0  0  0  0  0  0  0
  118.6397  109.1920  109.9859 C   0  0  0  0  0  0  0  0  0  0  0  0
  117.8820  108.5569  109.8361 O   0  0  0  0  0  0  0  0  0  0  0  0
  119.2151  109.1013  110.7988 N   0  0  0  0  0  0  0  0  0  0  0  0
  119.9924  109.6837  111.0367 C   0  0  0  0  0  0  0  0  0  0  0  0
  120.3717  109.3544  111.9014 C   0  0  0  0  0  0  0  0  0  0  0  0
  119.8289  108.5687  112.1978 C   0  0  0  0  0  0  0  0  0  0  0  0
  119.1140  108.4122  111.5164 C   0  0  0  0  0  0  0  0  0  0  0  0
  118.4200  107.6930  111.5471 C   0  0  0  0  0  0  0  0  0  0  0  0
  118.6195  106.7891  111.1685 O   0  0  0  0  0  0  0  0  0  0  0  0
  117.5264  107.8775  111.9564 O   0  0  0  0  0  0  0  0  0  0  0  0
  119.4568  106.6162  110.7851 H   0  0  0  0  0  0  0  0  0  0  0  0
  118.1366  110.6267  109.1560 C   0  0  0  0  0  0  0  0  0  0  0  0
  118.2484  111.5351  109.5589 S   0  0  0  0  0  0  0  0  0  0  0  0
  119.3326  111.8066  110.3338 H   0  0  0  0  0  0  0  0  0  0  0  0
  121.3437  109.0730  107.6589 C   0  0  0  0  0  0  0  0  0  0  0  0
  121.4891  108.1948  107.2032 C   0  0  0  0  0  0  0  0  0  0  0  0
  122.0591  108.0383  106.3966 C   0  0  0  0  0  0  0  0  0  0  0  0
  122.0123  107.0658  106.1690 N   0  0  0  0  0  0  0  0  0  0  0  0
  121.4132  106.6210  106.8349 C   0  0  0  0  0  0  0  0  0  0  0  0
  121.0899  107.3189  107.4741 N   0  0  0  0  0  0  0  0  0  0  0  0
  120.4848  107.1697  108.2362 H   0  0  0  0  0  0  0  0  0  0  0  0
  121.8475  111.4757  105.1386 C   0  0  0  0  0  0  0  0  0  0  0  0
  122.8056  111.7549  105.0748 C   0  0  0  0  0  0  0  0  0  0  0  0
  123.3838  111.3941  104.3430 C   0  0  0  0  0  0  0  0  0  0  0  0
  123.1144  111.5149  103.3875 O   0  0  0  0  0  0  0  0  0  0  0  0
  124.2312  110.9127  104.5666 N   0  0  0  0  0  0  0  0  0  0  0  0
  124.4963  110.7939  105.5073 H   0  0  0  0  0  0  0  0  0  0  0  0
  124.8004  110.5576  103.8461 H   0  0  0  0  0  0  0  0  0  0  0  0
  120.1688  114.5521  105.5620 C   0  0  0  0  0  0  0  0  0  0  0  0
  120.3720  115.2499  104.8751 C   0  0  0  0  0  0  0  0  0  0  0  0
  120.9380  116.0385  105.1156 C   0  0  0  0  0  0  0  0  0  0  0  0
  121.3924  116.5654  104.3974 C   0  0  0  0  0  0  0  0  0  0  0  0
  122.3910  116.5873  104.3492 N   0  0  0  0  0  0  0  0  0  0  0  0
  122.9461  116.0721  105.0325 H   0  0  0  0  0  0  0  0  0  0  0  0
  122.8545  117.1248  103.6167 H   0  0  0  0  0  0  0  0  0  0  0  0
  116.4740  115.5124  105.8304 C   0  0  0  0  0  0  0  0  0  0  0  0
  116.6466  115.3738  106.8057 O   0  0  0  0  0  0  0  0  0  0  0  0
  116.6555  114.7742  105.1807 N   0  0  0  0  0  0  0  0  0  0  0  0
  116.4857  114.9106  104.2206 H   0  0  0  0  0  0  0  0  0  0  0  0
  116.1198  116.3891  105.5050 C   0  0  0  0  0  0  0  0  0  0  0  0
  114.5533  116.5726  104.7892 C   0  0  0  0  0  0  0  0  0  0  0  0
  114.1519  116.6891  105.6976 O   0  0  0  0  0  0  0  0  0  0  0  0
  115.5373  116.4226  104.6929 N   0  0  0  0  0  0  0  0  0  0  0  0
  115.9326  116.3080  103.7985 H   0  0  0  0  0  0  0  0  0  0  0  0
  113.9708  116.6061  103.9771 C   0  0  0  0  0  0  0  0  0  0  0  0
  113.2420  115.1470  103.3943 C   0  0  0  0  0  0  0  0  0  0  0  0
  114.1026  114.8936  102.9525 O   0  0  0  0  0  0  0  0  0  0  0  0
  113.1761  116.0032  103.9066 N   0  0  0  0  0  0  0  0  0  0  0  0
  112.3289  116.2527  104.3415 H   0  0  0  0  0  0  0  0  0  0  0  0
  112.4473  114.5441  103.3237 C   0  0  0  0  0  0  0  0  0  0  0  0
  111.8818  114.5567  102.4991 C   0  0  0  0  0  0  0  0  0  0  0  0
  111.2659  113.6706  104.2408 C   0  0  0  0  0  0  0  0  0  0  0  0
  110.5428  114.0281  103.6498 O   0  0  0  0  0  0  0  0  0  0  0  0
  112.2181  113.9286  104.0778 N   0  0  0  0  0  0  0  0  0  0  0  0
  112.9300  113.5766  104.6596 H   0  0  0  0  0  0  0  0  0  0  0  0
  111.0366  113.0551  104.9950 C   0  0  0  0  0  0  0  0  0  0  0  0
  111.2759  113.4058  106.6742 C   0  0  0  0  0  0  0  0  0  0  0  0
  110.3621  113.8094  106.7200 O   0  0  0  0  0  0  0  0  0  0  0  0
  111.6131  113.0286  105.8116 N   0  0  0  0  0  0  0  0  0  0  0  0
  112.5127  112.6312  105.7664 H   0  0  0  0  0  0  0  0  0  0  0  0
  111.8524  113.3793  107.4908 C   0  0  0  0  0  0  0  0  0  0  0  0
  112.7290  114.7609  108.0588 C   0  0  0  0  0  0  0  0  0  0  0  0
  113.4811  114.5389  107.4383 O   0  0  0  0  0  0  0  0  0  0  0  0
  111.9147  114.1812  108.0851 N   0  0  0  0  0  0  0  0  0  0  0  0
  111.1742  114.3998  108.6960 H   0  0  0  0  0  0  0  0  0  0  0  0
  113.4991  115.6090  109.3580 N   0  0  0  0  0  0  0  0  0  0  0  0
  112.7913  115.5628  108.6531 C   0  0  0  0  0  0  0  0  0  0  0  0
  113.5626  116.4268  109.9642 H   0  0  0  0  0  0  0  0  0  0  0  0
  114.1576  114.8382  109.4707 H   0  0  0  0  0  0  0  0  0  0  0  0
  112.1457  116.3185  108.5426 C   0  0  0  0  0  0  0  0  0  0  0  0
  112.0406  116.7600  107.6515 O   0  0  0  0  0  0  0  0  0  0  0  0
  111.6052  116.6325  109.3231 C   0  0  0  0  0  0  0  0  0  0  0  0
  112.5650  116.4553  106.8944 H   0  0  0  0  0  0  0  0  0  0  0  0
  112.3666  112.5510  107.7132 C   0  0  0  0  0  0  0  0  0  0  0  0
  111.9967  111.8943  108.3704 C   0  0  0  0  0  0  0  0  0  0  0  0
  112.4448  111.0096  108.4993 C   0  0  0  0  0  0  0  0  0  0  0  0
  113.4033  110.9709  108.7818 O   0  0  0  0  0  0  0  0  0  0  0  0
  111.9343  110.1635  108.3457 N   0  0  0  0  0  0  0  0  0  0  0  0
  110.9907  110.2016  108.0675 H   0  0  0  0  0  0  0  0  0  0  0  0
  112.3754  109.2926  108.4726 H   0  0  0  0  0  0  0  0  0  0  0  0
  110.2310  112.4660  104.9324 C   0  0  0  0  0  0  0  0  0  0  0  0
  110.3394  111.4878  104.7556 C   0  0  0  0  0  0  0  0  0  0  0  0
  109.5515  110.8763  104.8281 C   0  0  0  0  0  0  0  0  0  0  0  0
  108.7139  111.0776  104.3201 O   0  0  0  0  0  0  0  0  0  0  0  0
  109.6010  110.0635  105.4087 N   0  0  0  0  0  0  0  0  0  0  0  0
  110.4255  109.8654  105.9088 H   0  0  0  0  0  0  0  0  0  0  0  0
  108.8253  109.4615  105.4800 H   0  0  0  0  0  0  0  0  0  0  0  0
  114.1830  117.2426  103.2355 C   0  0  0  0  0  0  0  0  0  0  0  0
  113.8935  118.1977  103.2982 O   0  0  0  0  0  0  0  0  0  0  0  0
  114.0993  118.8150  102.5788 H   0  0  0  0  0  0  0  0  0  0  0  0
  116.3483  117.2323  105.9917 C   0  0  0  0  0  0  0  0  0  0  0  0
  117.1812  117.7342  105.7587 C   0  0  0  0  0  0  0  0  0  0  0  0
  117.3834  118.1604  104.8770 C   0  0  0  0  0  0  0  0  0  0  0  0
  118.2854  118.5876  104.9398 N   0  0  0  0  0  0  0  0  0  0  0  0
  118.6407  118.4253  105.8604 C   0  0  0  0  0  0  0  0  0  0  0  0
  117.9582  117.8979  106.3664 N   0  0  0  0  0  0  0  0  0  0  0  0
  118.0374  117.5932  107.2993 H   0  0  0  0  0  0  0  0  0  0  0  0
 95 96  1  0  0  0
 95 97  1  0  0  0
 95 98  1  0  0  0
 96 91  1  0  0  0
 96 99  1  0  0  0
 91 92  2  0  0  0
 91 93  1  0  0  0
 93 90  1  0  0  0
 93 94  1  0  0  0
 90103  1  0  0  0
 90 86  1  0  0  0
103104  1  0  0  0
104105  1  0  0  0
105106  2  0  0  0
105107  1  0  0  0
107108  1  0  0  0
107109  1  0  0  0
 86 87  2  0  0  0
 86 88  1  0  0  0
 88 85  1  0  0  0
 88 89  1  0  0  0
 85110  1  0  0  0
 85 81  1  0  0  0
110111  1  0  0  0
111112  1  0  0  0
112113  2  0  0  0
112114  1  0  0  0
114115  1  0  0  0
114116  1  0  0  0
 81 82  2  0  0  0
 81 83  1  0  0  0
 83 79  1  0  0  0
 83 84  1  0  0  0
 79 80  1  0  0  0
 79 75  1  0  0  0
 75 76  2  0  0  0
 75 77  1  0  0  0
 77 74  1  0  0  0
 77 78  1  0  0  0
 74117  1  0  0  0
 74 70  1  0  0  0
117118  1  0  0  0
118119  1  0  0  0
 70 71  2  0  0  0
 70 72  1  0  0  0
 72 69  1  0  0  0
 72 73  1  0  0  0
 69120  1  0  0  0
 69 65  1  0  0  0
120121  1  0  0  0
121125  1  0  0  0
121122  2  0  0  0
122123  1  0  0  0
123124  2  0  0  0
124125  1  0  0  0
125126  1  0  0  0
 65 66  2  0  0  0
 65 67  1  0  0  0
 67  1  1  0  0  0
 67 68  1  0  0  0
  1  2  1  0  0  0
  1 10  1  0  0  0
  2  8  2  0  0  0
  2  3  1  0  0  0
  3  4  2  0  0  0
  4  5  1  0  0  0
  5  6  1  0  0  0
  5  7  2  0  0  0
  6  9  1  0  0  0
  7  8  1  0  0  0
 10 11  2  0  0  0
 10 12  1  0  0  0
 12 14  1  0  0  0
 12 13  1  0  0  0
 14 58  1  0  0  0
 14 15  1  0  0  0
 58 59  1  0  0  0
 59 60  1  0  0  0
 60 61  1  0  0  0
 61 62  1  0  0  0
 62 63  1  0  0  0
 62 64  1  0  0  0
 15 16  2  0  0  0
 15 17  1  0  0  0
 17 19  1  0  0  0
 17 18  1  0  0  0
 19 51  1  0  0  0
 19 20  1  0  0  0
 51 52  1  0  0  0
 52 53  1  0  0  0
 53 54  2  0  0  0
 53 55  1  0  0  0
 55 56  1  0  0  0
 55 57  1  0  0  0
 20 21  2  0  0  0
 20 22  1  0  0  0
 22 24  1  0  0  0
 22 23  1  0  0  0
 24 44  1  0  0  0
 24 25  1  0  0  0
 44 45  1  0  0  0
 45 49  1  0  0  0
 45 46  2  0  0  0
 46 47  1  0  0  0
 47 48  2  0  0  0
 48 49  1  0  0  0
 49 50  1  0  0  0
 25 26  2  0  0  0
 25 27  1  0  0  0
 27 29  1  0  0  0
 27 28  1  0  0  0
 29 41  1  0  0  0
 29 30  1  0  0  0
 41 42  1  0  0  0
 42 43  1  0  0  0
 30 31  2  0  0  0
 30 32  1  0  0  0
 32 36  1  0  0  0
 32 33  1  0  0  0
 33 34  1  0  0  0
 34 35  1  0  0  0
 35 36  1  0  0  0
 36 37  1  0  0  0
 37 38  1  0  0  0
 37 39  2  0  0  0
 38 40  1  0  0  0
 99100  1  0  0  0
 99101  1  0  0  0
100102  1  0  0  0
M  END
> <minimizedAffinity>
-7.77633

$$$$



126129  0  0  0  0  0  0  0  0999 V2000
  113.2246   87.0692   84.1314 C   0  0  0  0  0  0  0  0  0  0  0  0
  113.0521   87.0046   83.1485 C   0  0  0  0  0  0  0  0  0  0  0  0
  113.5806   87.5643   82.5103 C   0  0  0  0  0  0  0  0  0  0  0  0
  113.4081   87.4997   81.5273 C   0  0  0  0  0  0  0  0  0  0  0  0
  112.7070   86.8754   81.1827 C   0  0  0  0  0  0  0  0  0  0  0  0
  112.5345   86.8108   80.1998 O   0  0  0  0  0  0  0  0  0  0  0  0
  112.1785   86.3157   81.8210 C   0  0  0  0  0  0  0  0  0  0  0  0
  112.3510   86.3802   82.8038 C   0  0  0  0  0  0  0  0  0  0  0  0
  113.0298   87.3353   79.6018 H   0  0  0  0  0  0  0  0  0  0  0  0
  114.1632   87.0573   84.4761 C   0  0  0  0  0  0  0  0  0  0  0  0
  114.6583   87.9161   84.6081 O   0  0  0  0  0  0  0  0  0  0  0  0
  114.6068   86.1867   84.6888 N   0  0  0  0  0  0  0  0  0  0  0  0
  114.1194   85.3413   84.5589 H   0  0  0  0  0  0  0  0  0  0  0  0
  115.5455   86.1748   85.0336 C   0  0  0  0  0  0  0  0  0  0  0  0
  115.7308   85.8741   85.9691 C   0  0  0  0  0  0  0  0  0  0  0  0
  115.6452   84.9073   86.2097 O   0  0  0  0  0  0  0  0  0  0  0  0
  116.0018   86.5402   86.6640 N   0  0  0  0  0  0  0  0  0  0  0  0
  116.0860   87.4921   86.4270 H   0  0  0  0  0  0  0  0  0  0  0  0
  116.1871   86.2395   87.5995 C   0  0  0  0  0  0  0  0  0  0  0  0
  117.1300   86.1731   87.9258 C   0  0  0  0  0  0  0  0  0  0  0  0
  117.4101   85.3970   88.4908 O   0  0  0  0  0  0  0  0  0  0  0  0
  117.7929   86.8828   87.6870 N   0  0  0  0  0  0  0  0  0  0  0  0
  117.5172   87.6468   87.1307 H   0  0  0  0  0  0  0  0  0  0  0  0
  118.7359   86.8163   88.0132 C   0  0  0  0  0  0  0  0  0  0  0  0
  119.3993   86.2585   87.5147 C   0  0  0  0  0  0  0  0  0  0  0  0
  119.3990   86.2557   86.5147 O   0  0  0  0  0  0  0  0  0  0  0  0
  120.0630   85.7034   88.0161 N   0  0  0  0  0  0  0  0  0  0  0  0
  120.0632   85.7062   89.0005 H   0  0  0  0  0  0  0  0  0  0  0  0
  120.7264   85.1455   87.5175 C   0  0  0  0  0  0  0  0  0  0  0  0
  121.6532   85.0315   87.8754 C   0  0  0  0  0  0  0  0  0  0  0  0
  121.8449   84.3172   88.5484 O   0  0  0  0  0  0  0  0  0  0  0  0
  122.3883   85.6320   87.5603 N   0  0  0  0  0  0  0  0  0  0  0  0
  122.2978   86.3718   86.8936 C   0  0  0  0  0  0  0  0  0  0  0  0
  123.1965   86.7949   86.7779 C   0  0  0  0  0  0  0  0  0  0  0  0
  123.8422   86.3167   87.3731 C   0  0  0  0  0  0  0  0  0  0  0  0
  123.3427   85.5979   87.8566 C   0  0  0  0  0  0  0  0  0  0  0  0
  123.7297   84.9576   88.5200 C   0  0  0  0  0  0  0  0  0  0  0  0
  123.7532   85.1966   89.4908 O   0  0  0  0  0  0  0  0  0  0  0  0
  124.0933   84.0781   88.2127 O   0  0  0  0  0  0  0  0  0  0  0  0
  123.4126   86.0206   89.7787 H   0  0  0  0  0  0  0  0  0  0  0  0
  120.4631   84.7016   86.6609 C   0  0  0  0  0  0  0  0  0  0  0  0
  120.2838   83.7180   86.6420 S   0  0  0  0  0  0  0  0  0  0  0  0
  120.3979   82.9840   87.7812 H   0  0  0  0  0  0  0  0  0  0  0  0
  119.0153   87.3078   88.8381 C   0  0  0  0  0  0  0  0  0  0  0  0
  119.0982   88.3042   88.8225 C   0  0  0  0  0  0  0  0  0  0  0  0
  118.3851   88.9574   89.0772 C   0  0  0  0  0  0  0  0  0  0  0  0
  118.7549   89.8793   88.9616 N   0  0  0  0  0  0  0  0  0  0  0  0
  119.6967   89.7959   88.6355 C   0  0  0  0  0  0  0  0  0  0  0  0
  119.9088   88.8224   88.5496 N   0  0  0  0  0  0  0  0  0  0  0  0
  120.7653   88.4411   88.2490 H   0  0  0  0  0  0  0  0  0  0  0  0
  115.4295   86.0052   88.2087 C   0  0  0  0  0  0  0  0  0  0  0  0
  115.1774   86.6231   88.9535 C   0  0  0  0  0  0  0  0  0  0  0  0
  114.6080   86.2926   89.7062 C   0  0  0  0  0  0  0  0  0  0  0  0
  113.7061   85.9038   89.5175 O   0  0  0  0  0  0  0  0  0  0  0  0
  114.9404   86.3510   90.6475 N   0  0  0  0  0  0  0  0  0  0  0  0
  115.8282   86.7337   90.8332 H   0  0  0  0  0  0  0  0  0  0  0  0
  114.3798   86.0256   91.3886 H   0  0  0  0  0  0  0  0  0  0  0  0
  116.2988   86.4637   84.4427 C   0  0  0  0  0  0  0  0  0  0  0  0
  116.8102   85.7843   83.9164 C   0  0  0  0  0  0  0  0  0  0  0  0
  117.6328   86.0550   83.4163 C   0  0  0  0  0  0  0  0  0  0  0  0
  118.0632   85.4162   82.7786 C   0  0  0  0  0  0  0  0  0  0  0  0
  118.5339   85.7613   81.9666 N   0  0  0  0  0  0  0  0  0  0  0  0
  118.5751   86.7649   81.7889 H   0  0  0  0  0  0  0  0  0  0  0  0
  118.9729   85.1097   81.3161 H   0  0  0  0  0  0  0  0  0  0  0  0
  112.1376   88.0471   85.0598 C   0  0  0  0  0  0  0  0  0  0  0  0
  112.5827   88.8722   84.7119 O   0  0  0  0  0  0  0  0  0  0  0  0
  112.4585   87.1456   84.7695 N   0  0  0  0  0  0  0  0  0  0  0  0
  112.0203   86.3332   85.1120 H   0  0  0  0  0  0  0  0  0  0  0  0
  111.3715   88.1235   85.6980 C   0  0  0  0  0  0  0  0  0  0  0  0
  109.7840   87.5293   85.3419 C   0  0  0  0  0  0  0  0  0  0  0  0
  109.5636   88.3915   84.8856 O   0  0  0  0  0  0  0  0  0  0  0  0
  110.6879   87.3953   85.7480 N   0  0  0  0  0  0  0  0  0  0  0  0
  110.9049   86.5465   86.1972 H   0  0  0  0  0  0  0  0  0  0  0  0
  109.1004   86.8012   85.3919 C   0  0  0  0  0  0  0  0  0  0  0  0
  109.0299   85.4723   84.2833 C   0  0  0  0  0  0  0  0  0  0  0  0
  108.4623   86.0173   83.6662 O   0  0  0  0  0  0  0  0  0  0  0  0
  109.3489   85.8643   85.1461 N   0  0  0  0  0  0  0  0  0  0  0  0
  109.9077   85.3278   85.7537 H   0  0  0  0  0  0  0  0  0  0  0  0
  109.2784   84.5354   84.0375 C   0  0  0  0  0  0  0  0  0  0  0  0
  109.1605   84.2172   83.0969 C   0  0  0  0  0  0  0  0  0  0  0  0
  109.2078   83.0321   84.8948 C   0  0  0  0  0  0  0  0  0  0  0  0
  108.4041   82.7663   84.3623 O   0  0  0  0  0  0  0  0  0  0  0  0
  109.6449   83.9167   84.7323 N   0  0  0  0  0  0  0  0  0  0  0  0
  110.4361   84.1784   85.2565 H   0  0  0  0  0  0  0  0  0  0  0  0
  109.5743   82.4133   85.5897 C   0  0  0  0  0  0  0  0  0  0  0  0
  111.2158   81.8849   85.4277 C   0  0  0  0  0  0  0  0  0  0  0  0
  110.9355   81.2290   84.7268 O   0  0  0  0  0  0  0  0  0  0  0  0
  110.5352   82.4770   85.8591 N   0  0  0  0  0  0  0  0  0  0  0  0
  110.8111   83.1227   86.5492 H   0  0  0  0  0  0  0  0  0  0  0  0
  112.1767   81.9486   85.6972 C   0  0  0  0  0  0  0  0  0  0  0  0
  113.2251   82.8575   84.6605 C   0  0  0  0  0  0  0  0  0  0  0  0
  112.8446   83.7087   85.0219 O   0  0  0  0  0  0  0  0  0  0  0  0
  112.8911   81.9774   84.9981 N   0  0  0  0  0  0  0  0  0  0  0  0
  113.2657   81.1394   84.6423 H   0  0  0  0  0  0  0  0  0  0  0  0
  114.8968   82.7543   84.2191 N   0  0  0  0  0  0  0  0  0  0  0  0
  113.9396   82.8862   83.9614 C   0  0  0  0  0  0  0  0  0  0  0  0
  115.6256   82.7836   83.5061 H   0  0  0  0  0  0  0  0  0  0  0  0
  115.1443   82.5904   85.1949 H   0  0  0  0  0  0  0  0  0  0  0  0
  113.6970   83.0470   83.0047 C   0  0  0  0  0  0  0  0  0  0  0  0
  112.7633   82.8758   82.6901 O   0  0  0  0  0  0  0  0  0  0  0  0
  114.3879   83.3789   82.3626 C   0  0  0  0  0  0  0  0  0  0  0  0
  112.0930   82.5538   83.3131 H   0  0  0  0  0  0  0  0  0  0  0  0
  112.4231   81.9835   86.6657 C   0  0  0  0  0  0  0  0  0  0  0  0
  112.7353   81.1559   87.1323 C   0  0  0  0  0  0  0  0  0  0  0  0
  112.7855   81.1336   88.1308 C   0  0  0  0  0  0  0  0  0  0  0  0
  113.4724   81.6805   88.6093 O   0  0  0  0  0  0  0  0  0  0  0  0
  112.1487   80.5643   88.6508 N   0  0  0  0  0  0  0  0  0  0  0  0
  111.4724   80.0259   88.1797 H   0  0  0  0  0  0  0  0  0  0  0  0
  112.1981   80.5423   89.6338 H   0  0  0  0  0  0  0  0  0  0  0  0
  108.9799   81.7309   86.0150 C   0  0  0  0  0  0  0  0  0  0  0  0
  108.6771   81.8513   86.9604 C   0  0  0  0  0  0  0  0  0  0  0  0
  108.4040   81.0569   87.5030 C   0  0  0  0  0  0  0  0  0  0  0  0
  109.0516   80.6411   88.1415 O   0  0  0  0  0  0  0  0  0  0  0  0
  107.4834   80.6783   87.4070 N   0  0  0  0  0  0  0  0  0  0  0  0
  106.8459   81.0877   86.7784 H   0  0  0  0  0  0  0  0  0  0  0  0
  107.2146   79.8962   87.9412 H   0  0  0  0  0  0  0  0  0  0  0  0
  108.1683   87.0100   85.6877 C   0  0  0  0  0  0  0  0  0  0  0  0
  107.9298   86.9655   86.6579 O   0  0  0  0  0  0  0  0  0  0  0  0
  107.0256   87.1681   86.9448 H   0  0  0  0  0  0  0  0  0  0  0  0
  111.2890   88.9281   86.2861 C   0  0  0  0  0  0  0  0  0  0  0  0
  111.6484   88.9045   87.2190 C   0  0  0  0  0  0  0  0  0  0  0  0
  111.2128   88.4674   88.0059 C   0  0  0  0  0  0  0  0  0  0  0  0
  111.8018   88.6067   88.8020 N   0  0  0  0  0  0  0  0  0  0  0  0
  112.6014   89.1299   88.5071 C   0  0  0  0  0  0  0  0  0  0  0  0
  112.5066   89.3139   87.5287 N   0  0  0  0  0  0  0  0  0  0  0  0
  113.1459   89.8109   86.9688 H   0  0  0  0  0  0  0  0  0  0  0  0
 95 96  1  0  0  0
 95 97  1  0  0  0
 95 98  1  0  0  0
 96 91  1  0  0  0
 96 99  1  0  0  0
 91 92  2  0  0  0
 91 93  1  0  0  0
 93 90  1  0  0  0
 93 94  1  0  0  0
 90103  1  0  0  0
 90 86  1  0  0  0
103104  1  0  0  0
104105  1  0  0  0
105106  2  0  0  0
105107  1  0  0  0
107108  1  0  0  0
107109  1  0  0  0
 86 87  2  0  0  0
 86 88  1  0  0  0
 88 85  1  0  0  0
 88 89  1  0  0  0
 85110  1  0  0  0
 85 81  1  0  0  0
110111  1  0  0  0
111112  1  0  0  0
112113  2  0  0  0
112114  1  0  0  0
114115  1  0  0  0
114116  1  0  0  0
 81 82  2  0  0  0
 81 83  1  0  0  0
 83 79  1  0  0  0
 83 84  1  0  0  0
 79 80  1  0  0  0
 79 75  1  0  0  0
 75 76  2  0  0  0
 75 77  1  0  0  0
 77 74  1  0  0  0
 77 78  1  0  0  0
 74117  1  0  0  0
 74 70  1  0  0  0
117118  1  0  0  0
118119  1  0  0  0
 70 71  2  0  0  0
 70 72  1  0  0  0
 72 69  1  0  0  0
 72 73  1  0  0  0
 69120  1  0  0  0
 69 65  1  0  0  0
120121  1  0  0  0
121125  1  0  0  0
121122  2  0  0  0
122123  1  0  0  0
123124  2  0  0  0
124125  1  0  0  0
125126  1  0  0  0
 65 66  2  0  0  0
 65 67  1  0  0  0
 67  1  1  0  0  0
 67 68  1  0  0  0
  1  2  1  0  0  0
  1 10  1  0  0  0
  2  8  2  0  0  0
  2  3  1  0  0  0
  3  4  2  0  0  0
  4  5  1  0  0  0
  5  6  1  0  0  0
  5  7  2  0  0  0
  6  9  1  0  0  0
  7  8  1  0  0  0
 10 11  2  0  0  0
 10 12  1  0  0  0
 12 14  1  0  0  0
 12 13  1  0  0  0
 14 58  1  0  0  0
 14 15  1  0  0  0
 58 59  1  0  0  0
 59 60  1  0  0  0
 60 61  1  0  0  0
 61 62  1  0  0  0
 62 63  1  0  0  0
 62 64  1  0  0  0
 15 16  2  0  0  0
 15 17  1  0  0  0
 17 19  1  0  0  0
 17 18  1  0  0  0
 19 51  1  0  0  0
 19 20  1  0  0  0
 51 52  1  0  0  0
 52 53  1  0  0  0
 53 54  2  0  0  0
 53 55  1  0  0  0
 55 56  1  0  0  0
 55 57  1  0  0  0
 20 21  2  0  0  0
 20 22  1  0  0  0
 22 24  1  0  0  0
 22 23  1  0  0  0
 24 44  1  0  0  0
 24 25  1  0  0  0
 44 45  1  0  0  0
 45 49  1  0  0  0
 45 46  2  0  0  0
 46 47  1  0  0  0
 47 48  2  0  0  0
 48 49  1  0  0  0
 49 50  1  0  0  0
 25 26  2  0  0  0
 25 27  1  0  0  0
 27 29  1  0  0  0
 27 28  1  0  0  0
 29 41  1  0  0  0
 29 30  1  0  0  0
 41 42  1  0  0  0
 42 43  1  0  0  0
 30 31  2  0  0  0
 30 32  1  0  0  0
 32 36  1  0  0  0
 32 33  1  0  0  0
 33 34  1  0  0  0
 34 35  1  0  0  0
 35 36  1  0  0  0
 36 37  1  0  0  0
 37 38  1  0  0  0
 37 39  2  0  0  0
 38 40  1  0  0  0
 99100  1  0  0  0
 99101  1  0  0  0
100102  1  0  0  0
M  END
> <minimizedAffinity>
-7.62959

$$$$



126129  0  0  0  0  0  0  0  0999 V2000
  113.6480   88.5617   88.1384 C   0  0  0  0  0  0  0  0  0  0  0  0
  113.2676   88.6108   89.0619 C   0  0  0  0  0  0  0  0  0  0  0  0
  113.2631   87.7982   89.6447 C   0  0  0  0  0  0  0  0  0  0  0  0
  112.8826   87.8474   90.5683 C   0  0  0  0  0  0  0  0  0  0  0  0
  112.5066   88.7091   90.9089 C   0  0  0  0  0  0  0  0  0  0  0  0
  112.1261   88.7582   91.8324 O   0  0  0  0  0  0  0  0  0  0  0  0
  112.5110   89.5217   90.3261 C   0  0  0  0  0  0  0  0  0  0  0  0
  112.8915   89.4726   89.4026 C   0  0  0  0  0  0  0  0  0  0  0  0
  112.1219   87.9968   92.3785 H   0  0  0  0  0  0  0  0  0  0  0  0
  114.6387   88.5251   88.0072 C   0  0  0  0  0  0  0  0  0  0  0  0
  115.0522   88.9489   87.2013 O   0  0  0  0  0  0  0  0  0  0  0  0
  115.2158   88.0649   88.6817 N   0  0  0  0  0  0  0  0  0  0  0  0
  114.8086   87.6477   89.4751 H   0  0  0  0  0  0  0  0  0  0  0  0
  116.2065   88.0283   88.5505 C   0  0  0  0  0  0  0  0  0  0  0  0
  116.6354   87.1909   88.2116 C   0  0  0  0  0  0  0  0  0  0  0  0
  116.4347   86.3142   88.6486 O   0  0  0  0  0  0  0  0  0  0  0  0
  117.2650   87.2303   87.4357 N   0  0  0  0  0  0  0  0  0  0  0  0
  117.4626   88.0935   87.0054 H   0  0  0  0  0  0  0  0  0  0  0  0
  117.6939   86.3930   87.0968 C   0  0  0  0  0  0  0  0  0  0  0  0
  118.5384   86.0591   87.5154 C   0  0  0  0  0  0  0  0  0  0  0  0
  118.5576   85.1609   87.9547 O   0  0  0  0  0  0  0  0  0  0  0  0
  119.3639   86.6233   87.4948 N   0  0  0  0  0  0  0  0  0  0  0  0
  119.3450   87.5075   87.0623 H   0  0  0  0  0  0  0  0  0  0  0  0
  120.2084   86.2893   87.9135 C   0  0  0  0  0  0  0  0  0  0  0  0
  120.8390   85.7224   87.3835 C   0  0  0  0  0  0  0  0  0  0  0  0
  121.0348   85.9501   86.4296 O   0  0  0  0  0  0  0  0  0  0  0  0
  121.2738   84.9279   87.8073 N   0  0  0  0  0  0  0  0  0  0  0  0
  121.0810   84.7038   88.7463 H   0  0  0  0  0  0  0  0  0  0  0  0
  121.9044   84.3610   87.2773 C   0  0  0  0  0  0  0  0  0  0  0  0
  122.8880   84.5375   87.3153 C   0  0  0  0  0  0  0  0  0  0  0  0
  123.3771   84.8218   86.4908 O   0  0  0  0  0  0  0  0  0  0  0  0
  123.3823   84.4297   88.1779 N   0  0  0  0  0  0  0  0  0  0  0  0
  122.9849   84.1511   89.0522 C   0  0  0  0  0  0  0  0  0  0  0  0
  123.7179   84.1308   89.7322 C   0  0  0  0  0  0  0  0  0  0  0  0
  124.5682   84.3969   89.2781 C   0  0  0  0  0  0  0  0  0  0  0  0
  124.3608   84.5816   88.3175 C   0  0  0  0  0  0  0  0  0  0  0  0
  125.0167   84.8680   87.6191 C   0  0  0  0  0  0  0  0  0  0  0  0
  125.5428   84.1822   87.1161 O   0  0  0  0  0  0  0  0  0  0  0  0
  125.1465   85.8401   87.4237 O   0  0  0  0  0  0  0  0  0  0  0  0
  125.4211   83.2714   87.2992 H   0  0  0  0  0  0  0  0  0  0  0  0
  121.5514   83.6174   86.7092 C   0  0  0  0  0  0  0  0  0  0  0  0
  121.1533   82.8064   87.1378 S   0  0  0  0  0  0  0  0  0  0  0  0
  121.0919   82.7145   88.4933 H   0  0  0  0  0  0  0  0  0  0  0  0
  120.4223   86.5223   88.8621 C   0  0  0  0  0  0  0  0  0  0  0  0
  120.8826   87.3845   89.0737 C   0  0  0  0  0  0  0  0  0  0  0  0
  121.6258   87.5082   89.7313 C   0  0  0  0  0  0  0  0  0  0  0  0
  121.8830   88.4745   89.7288 N   0  0  0  0  0  0  0  0  0  0  0  0
  121.2989   88.9481   89.0696 C   0  0  0  0  0  0  0  0  0  0  0  0
  120.6806   88.2744   88.6647 N   0  0  0  0  0  0  0  0  0  0  0  0
  119.9936   88.4556   87.9832 H   0  0  0  0  0  0  0  0  0  0  0  0
  117.2784   85.8896   86.3393 C   0  0  0  0  0  0  0  0  0  0  0  0
  117.3683   86.2303   85.4034 C   0  0  0  0  0  0  0  0  0  0  0  0
  116.7285   85.9271   84.6972 C   0  0  0  0  0  0  0  0  0  0  0  0
  116.1443   85.1319   84.8600 O   0  0  0  0  0  0  0  0  0  0  0  0
  116.6728   86.4190   83.8284 N   0  0  0  0  0  0  0  0  0  0  0  0
  117.2480   87.2019   83.6683 H   0  0  0  0  0  0  0  0  0  0  0  0
  116.0429   86.1205   83.1332 H   0  0  0  0  0  0  0  0  0  0  0  0
  116.7683   88.8291   88.7581 C   0  0  0  0  0  0  0  0  0  0  0  0
  117.1171   88.9684   89.6850 C   0  0  0  0  0  0  0  0  0  0  0  0
  117.7114   89.7478   89.8836 C   0  0  0  0  0  0  0  0  0  0  0  0
  118.1322   89.8384   90.7862 C   0  0  0  0  0  0  0  0  0  0  0  0
  117.5832   89.6983   91.6102 N   0  0  0  0  0  0  0  0  0  0  0  0
  116.5939   89.4629   91.5300 H   0  0  0  0  0  0  0  0  0  0  0  0
  118.0124   89.7907   92.5308 H   0  0  0  0  0  0  0  0  0  0  0  0
  112.7816   87.6785   86.9263 C   0  0  0  0  0  0  0  0  0  0  0  0
  113.1354   86.8204   87.2986 O   0  0  0  0  0  0  0  0  0  0  0  0
  113.0379   88.5491   87.3463 N   0  0  0  0  0  0  0  0  0  0  0  0
  112.6895   89.3938   86.9798 H   0  0  0  0  0  0  0  0  0  0  0  0
  112.1714   87.6660   86.1342 C   0  0  0  0  0  0  0  0  0  0  0  0
  110.4774   87.3056   86.1544 C   0  0  0  0  0  0  0  0  0  0  0  0
  110.2720   88.2775   86.2693 O   0  0  0  0  0  0  0  0  0  0  0  0
  111.4271   86.9998   86.0868 N   0  0  0  0  0  0  0  0  0  0  0  0
  111.6293   86.0430   85.9738 H   0  0  0  0  0  0  0  0  0  0  0  0
  109.7331   86.6395   86.1071 C   0  0  0  0  0  0  0  0  0  0  0  0
  109.5163   85.3228   85.0029 C   0  0  0  0  0  0  0  0  0  0  0  0
  109.9133   84.6956   85.6729 O   0  0  0  0  0  0  0  0  0  0  0  0
  109.4262   86.2948   85.2200 N   0  0  0  0  0  0  0  0  0  0  0  0
  109.0354   86.9123   84.5604 H   0  0  0  0  0  0  0  0  0  0  0  0
  109.2094   84.9781   84.1157 C   0  0  0  0  0  0  0  0  0  0  0  0
  108.3098   85.2358   83.7631 C   0  0  0  0  0  0  0  0  0  0  0  0
  110.3263   84.7432   82.8130 C   0  0  0  0  0  0  0  0  0  0  0  0
  110.2579   85.7131   82.5794 O   0  0  0  0  0  0  0  0  0  0  0  0
  109.8021   84.3757   83.5812 N   0  0  0  0  0  0  0  0  0  0  0  0
  109.8695   83.4208   83.8112 H   0  0  0  0  0  0  0  0  0  0  0  0
  110.9191   84.1407   82.2784 C   0  0  0  0  0  0  0  0  0  0  0  0
  110.2372   83.4364   80.8505 C   0  0  0  0  0  0  0  0  0  0  0  0
  110.3312   84.3107   80.3743 O   0  0  0  0  0  0  0  0  0  0  0  0
  110.5311   83.3514   81.8025 N   0  0  0  0  0  0  0  0  0  0  0  0
  110.4386   82.4906   82.2713 H   0  0  0  0  0  0  0  0  0  0  0  0
  109.8493   82.6470   80.3746 C   0  0  0  0  0  0  0  0  0  0  0  0
  110.9174   81.3160   80.0792 C   0  0  0  0  0  0  0  0  0  0  0  0
  111.3535   81.8298   79.3404 O   0  0  0  0  0  0  0  0  0  0  0  0
  110.1653   81.7246   80.5963 N   0  0  0  0  0  0  0  0  0  0  0  0
  109.7360   81.2187   81.3236 H   0  0  0  0  0  0  0  0  0  0  0  0
  112.0205   80.2662   80.9046 N   0  0  0  0  0  0  0  0  0  0  0  0
  111.2335   80.3934   80.3009 C   0  0  0  0  0  0  0  0  0  0  0  0
  112.3429   79.3253   81.1307 H   0  0  0  0  0  0  0  0  0  0  0  0
  112.5009   81.0774   81.2941 H   0  0  0  0  0  0  0  0  0  0  0  0
  110.7625   79.5983   79.9190 C   0  0  0  0  0  0  0  0  0  0  0  0
  110.6301   79.5226   78.9307 O   0  0  0  0  0  0  0  0  0  0  0  0
  110.4241   78.8788   80.5254 C   0  0  0  0  0  0  0  0  0  0  0  0
  110.9584   80.2206   78.3425 H   0  0  0  0  0  0  0  0  0  0  0  0
  109.1452   82.7802   79.6770 C   0  0  0  0  0  0  0  0  0  0  0  0
  108.2046   82.4907   79.8544 C   0  0  0  0  0  0  0  0  0  0  0  0
  107.5112   82.5783   79.1391 C   0  0  0  0  0  0  0  0  0  0  0  0
  107.0618   83.4579   78.9833 O   0  0  0  0  0  0  0  0  0  0  0  0
  107.2673   81.7861   78.5796 N   0  0  0  0  0  0  0  0  0  0  0  0
  107.7097   80.9201   78.7331 H   0  0  0  0  0  0  0  0  0  0  0  0
  106.5847   81.8723   77.8755 H   0  0  0  0  0  0  0  0  0  0  0  0
  111.8997   84.3276   82.2196 C   0  0  0  0  0  0  0  0  0  0  0  0
  112.5515   83.7288   82.6850 C   0  0  0  0  0  0  0  0  0  0  0  0
  113.4755   83.6158   82.3196 C   0  0  0  0  0  0  0  0  0  0  0  0
  113.6571   82.9185   81.6262 O   0  0  0  0  0  0  0  0  0  0  0  0
  114.2179   84.2000   82.6477 N   0  0  0  0  0  0  0  0  0  0  0  0
  114.0390   84.8865   83.3304 H   0  0  0  0  0  0  0  0  0  0  0  0
  115.1275   84.0887   82.2880 H   0  0  0  0  0  0  0  0  0  0  0  0
  109.2957   86.3181   86.9469 C   0  0  0  0  0  0  0  0  0  0  0  0
  108.3912   86.6600   87.2021 O   0  0  0  0  0  0  0  0  0  0  0  0
  107.9669   86.3482   88.0168 H   0  0  0  0  0  0  0  0  0  0  0  0
  112.3056   88.3196   85.3892 C   0  0  0  0  0  0  0  0  0  0  0  0
  112.8266   88.0535   84.5783 C   0  0  0  0  0  0  0  0  0  0  0  0
  113.0084   87.1173   84.2776 C   0  0  0  0  0  0  0  0  0  0  0  0
  113.5516   87.1619   83.4390 N   0  0  0  0  0  0  0  0  0  0  0  0
  113.7054   88.1259   83.2216 C   0  0  0  0  0  0  0  0  0  0  0  0
  113.2574   88.6768   83.9257 N   0  0  0  0  0  0  0  0  0  0  0  0
  113.2429   89.6602   83.9688 H   0  0  0  0  0  0  0  0  0  0  0  0
 95 96  1  0  0  0
 95 97  1  0  0  0
 95 98  1  0  0  0
 96 91  1  0  0  0
 96 99  1  0  0  0
 91 92  2  0  0  0
 91 93  1  0  0  0
 93 90  1  0  0  0
 93 94  1  0  0  0
 90103  1  0  0  0
 90 86  1  0  0  0
103104  1  0  0  0
104105  1  0  0  0
105106  2  0  0  0
105107  1  0  0  0
107108  1  0  0  0
107109  1  0  0  0
 86 87  2  0  0  0
 86 88  1  0  0  0
 88 85  1  0  0  0
 88 89  1  0  0  0
 85110  1  0  0  0
 85 81  1  0  0  0
110111  1  0  0  0
111112  1  0  0  0
112113  2  0  0  0
112114  1  0  0  0
114115  1  0  0  0
114116  1  0  0  0
 81 82  2  0  0  0
 81 83  1  0  0  0
 83 79  1  0  0  0
 83 84  1  0  0  0
 79 80  1  0  0  0
 79 75  1  0  0  0
 75 76  2  0  0  0
 75 77  1  0  0  0
 77 74  1  0  0  0
 77 78  1  0  0  0
 74117  1  0  0  0
 74 70  1  0  0  0
117118  1  0  0  0
118119  1  0  0  0
 70 71  2  0  0  0
 70 72  1  0  0  0
 72 69  1  0  0  0
 72 73  1  0  0  0
 69120  1  0  0  0
 69 65  1  0  0  0
120121  1  0  0  0
121125  1  0  0  0
121122  2  0  0  0
122123  1  0  0  0
123124  2  0  0  0
124125  1  0  0  0
125126  1  0  0  0
 65 66  2  0  0  0
 65 67  1  0  0  0
 67  1  1  0  0  0
 67 68  1  0  0  0
  1  2  1  0  0  0
  1 10  1  0  0  0
  2  8  2  0  0  0
  2  3  1  0  0  0
  3  4  2  0  0  0
  4  5  1  0  0  0
  5  6  1  0  0  0
  5  7  2  0  0  0
  6  9  1  0  0  0
  7  8  1  0  0  0
 10 11  2  0  0  0
 10 12  1  0  0  0
 12 14  1  0  0  0
 12 13  1  0  0  0
 14 58  1  0  0  0
 14 15  1  0  0  0
 58 59  1  0  0  0
 59 60  1  0  0  0
 60 61  1  0  0  0
 61 62  1  0  0  0
 62 63  1  0  0  0
 62 64  1  0  0  0
 15 16  2  0  0  0
 15 17  1  0  0  0
 17 19  1  0  0  0
 17 18  1  0  0  0
 19 51  1  0  0  0
 19 20  1  0  0  0
 51 52  1  0  0  0
 52 53  1  0  0  0
 53 54  2  0  0  0
 53 55  1  0  0  0
 55 56  1  0  0  0
 55 57  1  0  0  0
 20 21  2  0  0  0
 20 22  1  0  0  0
 22 24  1  0  0  0
 22 23  1  0  0  0
 24 44  1  0  0  0
 24 25  1  0  0  0
 44 45  1  0  0  0
 45 49  1  0  0  0
 45 46  2  0  0  0
 46 47  1  0  0  0
 47 48  2  0  0  0
 48 49  1  0  0  0
 49 50  1  0  0  0
 25 26  2  0  0  0
 25 27  1  0  0  0
 27 29  1  0  0  0
 27 28  1  0  0  0
 29 41  1  0  0  0
 29 30  1  0  0  0
 41 42  1  0  0  0
 42 43  1  0  0  0
 30 31  2  0  0  0
 30 32  1  0  0  0
 32 36  1  0  0  0
 32 33  1  0  0  0
 33 34  1  0  0  0
 34 35  1  0  0  0
 35 36  1  0  0  0
 36 37  1  0  0  0
 37 38  1  0  0  0
 37 39  2  0  0  0
 38 40  1  0  0  0
 99100  1  0  0  0
 99101  1  0  0  0
100102  1  0  0  0
M  END
> <minimizedAffinity>
-7.62200

$$$$



126129  0  0  0  0  0  0  0  0999 V2000
  111.0002   85.7202   83.7080 C   0  0  0  0  0  0  0  0  0  0  0  0
  111.7999   86.0224   83.1893 C   0  0  0  0  0  0  0  0  0  0  0  0
  111.6925   86.3497   82.2505 C   0  0  0  0  0  0  0  0  0  0  0  0
  112.4923   86.6519   81.7317 C   0  0  0  0  0  0  0  0  0  0  0  0
  113.3994   86.6267   82.1518 C   0  0  0  0  0  0  0  0  0  0  0  0
  114.1992   86.9289   81.6330 O   0  0  0  0  0  0  0  0  0  0  0  0
  113.5069   86.2994   83.0905 C   0  0  0  0  0  0  0  0  0  0  0  0
  112.7072   85.9972   83.6093 C   0  0  0  0  0  0  0  0  0  0  0  0
  114.0985   87.2356   80.7534 H   0  0  0  0  0  0  0  0  0  0  0  0
  110.3999   85.0130   83.3345 C   0  0  0  0  0  0  0  0  0  0  0  0
  109.5582   85.2710   82.8602 O   0  0  0  0  0  0  0  0  0  0  0  0
  110.6414   84.0479   83.4352 N   0  0  0  0  0  0  0  0  0  0  0  0
  111.4700   83.7939   83.9021 H   0  0  0  0  0  0  0  0  0  0  0  0
  110.0411   83.3406   83.0616 C   0  0  0  0  0  0  0  0  0  0  0  0
  110.3107   82.8389   82.2397 C   0  0  0  0  0  0  0  0  0  0  0  0
  110.4237   81.8459   82.2747 O   0  0  0  0  0  0  0  0  0  0  0  0
  110.4673   83.3301   81.3829 N   0  0  0  0  0  0  0  0  0  0  0  0
  110.3561   84.3077   81.3485 H   0  0  0  0  0  0  0  0  0  0  0  0
  110.7370   82.8283   80.5610 C   0  0  0  0  0  0  0  0  0  0  0  0
  111.6930   82.5686   80.4249 C   0  0  0  0  0  0  0  0  0  0  0  0
  111.9176   81.6794   80.0262 O   0  0  0  0  0  0  0  0  0  0  0  0
  112.4244   83.1981   80.6874 N   0  0  0  0  0  0  0  0  0  0  0  0
  112.2032   84.0735   81.0798 H   0  0  0  0  0  0  0  0  0  0  0  0
  113.3804   82.9383   80.5513 C   0  0  0  0  0  0  0  0  0  0  0  0
  113.9084   82.5588   81.3109 C   0  0  0  0  0  0  0  0  0  0  0  0
  114.0355   83.0921   82.1472 O   0  0  0  0  0  0  0  0  0  0  0  0
  114.3093   81.6458   81.2343 N   0  0  0  0  0  0  0  0  0  0  0  0
  114.1841   81.1208   80.4110 H   0  0  0  0  0  0  0  0  0  0  0  0
  114.8373   81.2662   81.9940 C   0  0  0  0  0  0  0  0  0  0  0  0
  115.8349   81.3351   81.9932 C   0  0  0  0  0  0  0  0  0  0  0  0
  116.2984   81.8887   82.6851 O   0  0  0  0  0  0  0  0  0  0  0  0
  116.3690   80.8504   81.3005 N   0  0  0  0  0  0  0  0  0  0  0  0
  116.0004   80.2747   80.5706 C   0  0  0  0  0  0  0  0  0  0  0  0
  116.7691   79.9248   80.0352 C   0  0  0  0  0  0  0  0  0  0  0  0
  117.6127   80.2842   80.4342 C   0  0  0  0  0  0  0  0  0  0  0  0
  117.3654   80.8562   81.2162 C   0  0  0  0  0  0  0  0  0  0  0  0
  118.0026   81.3478   81.8097 C   0  0  0  0  0  0  0  0  0  0  0  0
  118.1983   82.3140   81.6418 O   0  0  0  0  0  0  0  0  0  0  0  0
  118.4442   80.8732   82.5712 O   0  0  0  0  0  0  0  0  0  0  0  0
  117.7846   82.7587   80.9284 H   0  0  0  0  0  0  0  0  0  0  0  0
  114.3676   80.8177   82.7545 C   0  0  0  0  0  0  0  0  0  0  0  0
  113.8560   79.9729   82.5979 S   0  0  0  0  0  0  0  0  0  0  0  0
  113.7988   79.4339   81.3506 H   0  0  0  0  0  0  0  0  0  0  0  0
  113.8084   83.0582   79.6555 C   0  0  0  0  0  0  0  0  0  0  0  0
  114.2709   83.9165   79.4331 C   0  0  0  0  0  0  0  0  0  0  0  0
  113.8412   84.7330   79.0475 C   0  0  0  0  0  0  0  0  0  0  0  0
  114.5490   85.4301   78.9334 N   0  0  0  0  0  0  0  0  0  0  0  0
  115.4162   85.0445   79.2485 C   0  0  0  0  0  0  0  0  0  0  0  0
  115.2443   84.1090   79.5573 N   0  0  0  0  0  0  0  0  0  0  0  0
  115.9156   83.4868   79.9200 H   0  0  0  0  0  0  0  0  0  0  0  0
  110.0506   82.5863   79.8752 C   0  0  0  0  0  0  0  0  0  0  0  0
  109.5277   83.3045   79.4160 C   0  0  0  0  0  0  0  0  0  0  0  0
  108.6476   83.0893   78.9927 C   0  0  0  0  0  0  0  0  0  0  0  0
  108.2356   82.1879   79.1264 O   0  0  0  0  0  0  0  0  0  0  0  0
  108.1796   83.7753   78.4357 N   0  0  0  0  0  0  0  0  0  0  0  0
  108.5854   84.6626   78.3041 H   0  0  0  0  0  0  0  0  0  0  0  0
  107.3132   83.5635   78.0189 H   0  0  0  0  0  0  0  0  0  0  0  0
  109.1711   83.1352   83.5100 C   0  0  0  0  0  0  0  0  0  0  0  0
  109.1549   82.5693   84.3344 C   0  0  0  0  0  0  0  0  0  0  0  0
  108.3390   82.5510   84.9123 C   0  0  0  0  0  0  0  0  0  0  0  0
  108.4242   82.6701   85.9015 C   0  0  0  0  0  0  0  0  0  0  0  0
  107.6240   82.5537   86.4899 N   0  0  0  0  0  0  0  0  0  0  0  0
  106.7209   82.3136   86.0809 H   0  0  0  0  0  0  0  0  0  0  0  0
  107.7109   82.6752   87.4988 H   0  0  0  0  0  0  0  0  0  0  0  0
  110.1602   86.8899   84.6705 C   0  0  0  0  0  0  0  0  0  0  0  0
  109.7191   87.2496   83.8482 O   0  0  0  0  0  0  0  0  0  0  0  0
  110.8008   86.1252   84.6003 N   0  0  0  0  0  0  0  0  0  0  0  0
  111.2351   85.7710   85.4097 H   0  0  0  0  0  0  0  0  0  0  0  0
  109.9608   87.2948   85.5628 C   0  0  0  0  0  0  0  0  0  0  0  0
  111.2320   88.2132   86.2981 C   0  0  0  0  0  0  0  0  0  0  0  0
  111.0548   88.9660   85.6642 O   0  0  0  0  0  0  0  0  0  0  0  0
  110.6850   87.3776   86.2474 N   0  0  0  0  0  0  0  0  0  0  0  0
  110.8594   86.6364   86.8715 H   0  0  0  0  0  0  0  0  0  0  0  0
  111.9561   88.2960   86.9827 C   0  0  0  0  0  0  0  0  0  0  0  0
  113.4913   87.4947   86.9505 C   0  0  0  0  0  0  0  0  0  0  0  0
  113.1080   86.7389   87.4814 O   0  0  0  0  0  0  0  0  0  0  0  0
  112.9154   88.2732   86.7012 N   0  0  0  0  0  0  0  0  0  0  0  0
  113.2927   89.0173   86.1785 H   0  0  0  0  0  0  0  0  0  0  0  0
  114.4506   87.4719   86.6689 C   0  0  0  0  0  0  0  0  0  0  0  0
  114.8785   88.2901   86.2850 C   0  0  0  0  0  0  0  0  0  0  0  0
  115.7360   86.4365   86.1439 C   0  0  0  0  0  0  0  0  0  0  0  0
  115.9587   87.0830   85.4143 O   0  0  0  0  0  0  0  0  0  0  0  0
  114.9819   86.6309   86.7713 N   0  0  0  0  0  0  0  0  0  0  0  0
  114.7626   85.9945   87.4896 H   0  0  0  0  0  0  0  0  0  0  0  0
  116.2674   85.5955   86.2463 C   0  0  0  0  0  0  0  0  0  0  0  0
  115.6992   84.1006   85.5812 C   0  0  0  0  0  0  0  0  0  0  0  0
  116.0670   84.3583   84.6877 O   0  0  0  0  0  0  0  0  0  0  0  0
  115.7994   84.7192   86.3604 N   0  0  0  0  0  0  0  0  0  0  0  0
  115.4373   84.4655   87.2400 H   0  0  0  0  0  0  0  0  0  0  0  0
  115.2312   83.2242   85.6953 C   0  0  0  0  0  0  0  0  0  0  0  0
  116.1235   81.8299   86.2049 C   0  0  0  0  0  0  0  0  0  0  0  0
  116.0671   82.1406   87.1537 O   0  0  0  0  0  0  0  0  0  0  0  0
  115.7056   82.3718   85.4757 N   0  0  0  0  0  0  0  0  0  0  0  0
  115.7611   82.0659   84.5415 H   0  0  0  0  0  0  0  0  0  0  0  0
  117.3922   80.9894   85.3779 N   0  0  0  0  0  0  0  0  0  0  0  0
  116.5979   80.9774   85.9852 C   0  0  0  0  0  0  0  0  0  0  0  0
  117.8761   80.1199   85.1538 H   0  0  0  0  0  0  0  0  0  0  0  0
  117.7186   81.8712   84.9824 H   0  0  0  0  0  0  0  0  0  0  0  0
  116.2779   80.1129   86.3729 C   0  0  0  0  0  0  0  0  0  0  0  0
  116.1906   80.0113   87.3639 O   0  0  0  0  0  0  0  0  0  0  0  0
  116.0453   79.3501   85.7696 C   0  0  0  0  0  0  0  0  0  0  0  0
  116.4163   80.7513   87.9491 H   0  0  0  0  0  0  0  0  0  0  0  0
  114.2889   83.2004   86.0291 C   0  0  0  0  0  0  0  0  0  0  0  0
  113.5433   82.9666   85.4051 C   0  0  0  0  0  0  0  0  0  0  0  0
  112.6207   82.8185   85.7617 C   0  0  0  0  0  0  0  0  0  0  0  0
  112.0757   83.5955   86.0766 O   0  0  0  0  0  0  0  0  0  0  0  0
  112.2433   81.8934   85.8032 N   0  0  0  0  0  0  0  0  0  0  0  0
  112.7799   81.1285   85.4932 H   0  0  0  0  0  0  0  0  0  0  0  0
  111.3352   81.7477   86.1542 H   0  0  0  0  0  0  0  0  0  0  0  0
  117.2666   85.6309   86.2344 C   0  0  0  0  0  0  0  0  0  0  0  0
  117.7805   85.5329   87.0866 C   0  0  0  0  0  0  0  0  0  0  0  0
  118.7803   85.5473   87.0721 C   0  0  0  0  0  0  0  0  0  0  0  0
  119.2677   86.4204   87.0593 O   0  0  0  0  0  0  0  0  0  0  0  0
  119.2928   84.6885   87.0703 N   0  0  0  0  0  0  0  0  0  0  0  0
  118.8130   83.8289   87.0829 H   0  0  0  0  0  0  0  0  0  0  0  0
  120.2771   84.7027   87.0560 H   0  0  0  0  0  0  0  0  0  0  0  0
  111.7210   88.4015   87.9489 C   0  0  0  0  0  0  0  0  0  0  0  0
  111.4030   89.2851   88.2925 O   0  0  0  0  0  0  0  0  0  0  0  0
  111.1749   89.3875   89.2298 H   0  0  0  0  0  0  0  0  0  0  0  0
  109.0371   87.6171   85.7704 C   0  0  0  0  0  0  0  0  0  0  0  0
  108.3508   86.9779   86.1174 C   0  0  0  0  0  0  0  0  0  0  0  0
  108.4747   86.3362   86.8742 C   0  0  0  0  0  0  0  0  0  0  0  0
  107.6205   85.8298   86.9931 N   0  0  0  0  0  0  0  0  0  0  0  0
  106.9687   86.1587   86.3096 C   0  0  0  0  0  0  0  0  0  0  0  0
  107.4202   86.8682   85.7685 N   0  0  0  0  0  0  0  0  0  0  0  0
  107.0187   87.3706   85.0230 H   0  0  0  0  0  0  0  0  0  0  0  0
 95 96  1  0  0  0
 95 97  1  0  0  0
 95 98  1  0  0  0
 96 91  1  0  0  0
 96 99  1  0  0  0
 91 92  2  0  0  0
 91 93  1  0  0  0
 93 90  1  0  0  0
 93 94  1  0  0  0
 90103  1  0  0  0
 90 86  1  0  0  0
103104  1  0  0  0
104105  1  0  0  0
105106  2  0  0  0
105107  1  0  0  0
107108  1  0  0  0
107109  1  0  0  0
 86 87  2  0  0  0
 86 88  1  0  0  0
 88 85  1  0  0  0
 88 89  1  0  0  0
 85110  1  0  0  0
 85 81  1  0  0  0
110111  1  0  0  0
111112  1  0  0  0
112113  2  0  0  0
112114  1  0  0  0
114115  1  0  0  0
114116  1  0  0  0
 81 82  2  0  0  0
 81 83  1  0  0  0
 83 79  1  0  0  0
 83 84  1  0  0  0
 79 80  1  0  0  0
 79 75  1  0  0  0
 75 76  2  0  0  0
 75 77  1  0  0  0
 77 74  1  0  0  0
 77 78  1  0  0  0
 74117  1  0  0  0
 74 70  1  0  0  0
117118  1  0  0  0
118119  1  0  0  0
 70 71  2  0  0  0
 70 72  1  0  0  0
 72 69  1  0  0  0
 72 73  1  0  0  0
 69120  1  0  0  0
 69 65  1  0  0  0
120121  1  0  0  0
121125  1  0  0  0
121122  2  0  0  0
122123  1  0  0  0
123124  2  0  0  0
124125  1  0  0  0
125126  1  0  0  0
 65 66  2  0  0  0
 65 67  1  0  0  0
 67  1  1  0  0  0
 67 68  1  0  0  0
  1  2  1  0  0  0
  1 10  1  0  0  0
  2  8  2  0  0  0
  2  3  1  0  0  0
  3  4  2  0  0  0
  4  5  1  0  0  0
  5  6  1  0  0  0
  5  7  2  0  0  0
  6  9  1  0  0  0
  7  8  1  0  0  0
 10 11  2  0  0  0
 10 12  1  0  0  0
 12 14  1  0  0  0
 12 13  1  0  0  0
 14 58  1  0  0  0
 14 15  1  0  0  0
 58 59  1  0  0  0
 59 60  1  0  0  0
 60 61  1  0  0  0
 61 62  1  0  0  0
 62 63  1  0  0  0
 62 64  1  0  0  0
 15 16  2  0  0  0
 15 17  1  0  0  0
 17 19  1  0  0  0
 17 18  1  0  0  0
 19 51  1  0  0  0
 19 20  1  0  0  0
 51 52  1  0  0  0
 52 53  1  0  0  0
 53 54  2  0  0  0
 53 55  1  0  0  0
 55 56  1  0  0  0
 55 57  1  0  0  0
 20 21  2  0  0  0
 20 22  1  0  0  0
 22 24  1  0  0  0
 22 23  1  0  0  0
 24 44  1  0  0  0
 24 25  1  0  0  0
 44 45  1  0  0  0
 45 49  1  0  0  0
 45 46  2  0  0  0
 46 47  1  0  0  0
 47 48  2  0  0  0
 48 49  1  0  0  0
 49 50  1  0  0  0
 25 26  2  0  0  0
 25 27  1  0  0  0
 27 29  1  0  0  0
 27 28  1  0  0  0
 29 41  1  0  0  0
 29 30  1  0  0  0
 41 42  1  0  0  0
 42 43  1  0  0  0
 30 31  2  0  0  0
 30 32  1  0  0  0
 32 36  1  0  0  0
 32 33  1  0  0  0
 33 34  1  0  0  0
 34 35  1  0  0  0
 35 36  1  0  0  0
 36 37  1  0  0  0
 37 38  1  0  0  0
 37 39  2  0  0  0
 38 40  1  0  0  0
 99100  1  0  0  0
 99101  1  0  0  0
100102  1  0  0  0
M  END
> <minimizedAffinity>
-7.61870

$$$$



126129  0  0  0  0  0  0  0  0999 V2000
  112.8489  112.9532  107.8530 C   0  0  0  0  0  0  0  0  0  0  0  0
  112.9625  111.9905  108.0985 C   0  0  0  0  0  0  0  0  0  0  0  0
  113.7866  111.4973  107.8199 C   0  0  0  0  0  0  0  0  0  0  0  0
  113.9001  110.5345  108.0654 C   0  0  0  0  0  0  0  0  0  0  0  0
  113.1895  110.0650  108.5894 C   0  0  0  0  0  0  0  0  0  0  0  0
  113.3031  109.1022  108.8349 O   0  0  0  0  0  0  0  0  0  0  0  0
  112.3654  110.5582  108.8680 C   0  0  0  0  0  0  0  0  0  0  0  0
  112.2519  111.5209  108.6226 C   0  0  0  0  0  0  0  0  0  0  0  0
  114.0752  108.6401  108.5739 H   0  0  0  0  0  0  0  0  0  0  0  0
  112.9981  113.6651  108.5393 C   0  0  0  0  0  0  0  0  0  0  0  0
  112.7718  113.4910  109.4977 O   0  0  0  0  0  0  0  0  0  0  0  0
  113.3736  114.5510  108.2671 N   0  0  0  0  0  0  0  0  0  0  0  0
  113.5964  114.7224  107.3236 H   0  0  0  0  0  0  0  0  0  0  0  0
  113.5229  115.2630  108.9534 C   0  0  0  0  0  0  0  0  0  0  0  0
  114.4534  115.5089  109.2245 C   0  0  0  0  0  0  0  0  0  0  0  0
  115.0818  115.9034  108.5541 O   0  0  0  0  0  0  0  0  0  0  0  0
  114.7557  115.3604  110.1661 N   0  0  0  0  0  0  0  0  0  0  0  0
  114.1370  114.9720  110.8262 H   0  0  0  0  0  0  0  0  0  0  0  0
  115.6862  115.6063  110.4372 C   0  0  0  0  0  0  0  0  0  0  0  0
  115.8521  116.4514  110.9454 C   0  0  0  0  0  0  0  0  0  0  0  0
  115.1734  117.1857  110.9298 O   0  0  0  0  0  0  0  0  0  0  0  0
  116.6966  116.5623  111.4694 N   0  0  0  0  0  0  0  0  0  0  0  0
  117.3648  115.8394  111.4848 H   0  0  0  0  0  0  0  0  0  0  0  0
  116.8625  117.4074  111.9776 C   0  0  0  0  0  0  0  0  0  0  0  0
  117.4601  118.1119  111.5948 C   0  0  0  0  0  0  0  0  0  0  0  0
  117.1545  119.0634  111.5628 O   0  0  0  0  0  0  0  0  0  0  0  0
  118.3635  117.8648  111.2442 N   0  0  0  0  0  0  0  0  0  0  0  0
  118.6643  116.9279  111.2758 H   0  0  0  0  0  0  0  0  0  0  0  0
  118.9611  118.5692  110.8614 C   0  0  0  0  0  0  0  0  0  0  0  0
  119.1188  118.6091  109.8747 C   0  0  0  0  0  0  0  0  0  0  0  0
  118.8412  119.4180  109.3564 O   0  0  0  0  0  0  0  0  0  0  0  0
  119.5540  117.8401  109.4064 N   0  0  0  0  0  0  0  0  0  0  0  0
  119.8658  116.9918  109.8342 C   0  0  0  0  0  0  0  0  0  0  0  0
  120.2584  116.4119  109.1203 C   0  0  0  0  0  0  0  0  0  0  0  0
  120.1891  116.9020  108.2513 C   0  0  0  0  0  0  0  0  0  0  0  0
  119.7539  117.7847  108.4282 C   0  0  0  0  0  0  0  0  0  0  0  0
  119.5535  118.4883  107.7465 C   0  0  0  0  0  0  0  0  0  0  0  0
  120.2507  119.1634  107.5050 O   0  0  0  0  0  0  0  0  0  0  0  0
  118.6561  118.5169  107.3063 O   0  0  0  0  0  0  0  0  0  0  0  0
  121.0916  119.1365  107.9174 H   0  0  0  0  0  0  0  0  0  0  0  0
  119.4012  119.2338  111.4654 C   0  0  0  0  0  0  0  0  0  0  0  0
  120.1705  118.9547  112.0400 S   0  0  0  0  0  0  0  0  0  0  0  0
  120.6184  117.6712  112.0002 H   0  0  0  0  0  0  0  0  0  0  0  0
  116.4307  117.5480  112.8685 C   0  0  0  0  0  0  0  0  0  0  0  0
  116.8992  117.2573  113.7027 C   0  0  0  0  0  0  0  0  0  0  0  0
  117.0084  116.3143  114.0173 C   0  0  0  0  0  0  0  0  0  0  0  0
  117.5175  116.3327  114.8778 N   0  0  0  0  0  0  0  0  0  0  0  0
  117.7230  117.2870  115.0951 C   0  0  0  0  0  0  0  0  0  0  0  0
  117.3408  117.8584  114.3688 N   0  0  0  0  0  0  0  0  0  0  0  0
  117.3906  118.8403  114.3184 H   0  0  0  0  0  0  0  0  0  0  0  0
  116.4509  115.0072  110.2002 C   0  0  0  0  0  0  0  0  0  0  0  0
  116.4034  114.0300  110.4072 C   0  0  0  0  0  0  0  0  0  0  0  0
  117.2433  113.4912  110.4721 C   0  0  0  0  0  0  0  0  0  0  0  0
  118.1150  113.8874  110.1838 O   0  0  0  0  0  0  0  0  0  0  0  0
  117.2114  112.5562  110.8254 N   0  0  0  0  0  0  0  0  0  0  0  0
  116.3532  112.1662  111.1092 H   0  0  0  0  0  0  0  0  0  0  0  0
  118.0383  112.0257  110.8893 H   0  0  0  0  0  0  0  0  0  0  0  0
  112.7415  115.7290  109.3685 C   0  0  0  0  0  0  0  0  0  0  0  0
  112.3470  116.5345  108.9262 C   0  0  0  0  0  0  0  0  0  0  0  0
  111.7306  117.1338  109.4369 C   0  0  0  0  0  0  0  0  0  0  0  0
  111.0287  117.6576  108.9542 C   0  0  0  0  0  0  0  0  0  0  0  0
  110.7825  118.5737  109.2706 N   0  0  0  0  0  0  0  0  0  0  0  0
  111.2472  118.9738  110.0857 H   0  0  0  0  0  0  0  0  0  0  0  0
  110.0666  119.1080  108.7782 H   0  0  0  0  0  0  0  0  0  0  0  0
  111.6376  113.4460  106.7174 C   0  0  0  0  0  0  0  0  0  0  0  0
  110.9517  113.4372  107.4451 O   0  0  0  0  0  0  0  0  0  0  0  0
  112.5862  113.2040  106.9214 N   0  0  0  0  0  0  0  0  0  0  0  0
  113.2614  113.2127  106.2050 H   0  0  0  0  0  0  0  0  0  0  0  0
  111.3748  113.6968  105.7857 C   0  0  0  0  0  0  0  0  0  0  0  0
  112.2662  114.9336  104.9635 C   0  0  0  0  0  0  0  0  0  0  0  0
  111.7576  115.6335  105.4649 O   0  0  0  0  0  0  0  0  0  0  0  0
  112.0748  113.9652  105.1239 N   0  0  0  0  0  0  0  0  0  0  0  0
  112.5755  113.2761  104.6302 H   0  0  0  0  0  0  0  0  0  0  0  0
  112.9662  115.2020  104.3017 C   0  0  0  0  0  0  0  0  0  0  0  0
  114.3069  116.1353  104.8773 C   0  0  0  0  0  0  0  0  0  0  0  0
  114.7157  115.3090  105.2647 O   0  0  0  0  0  0  0  0  0  0  0  0
  113.4321  116.0818  104.3958 N   0  0  0  0  0  0  0  0  0  0  0  0
  113.0295  116.8952  104.0144 H   0  0  0  0  0  0  0  0  0  0  0  0
  114.7728  117.0151  104.9714 C   0  0  0  0  0  0  0  0  0  0  0  0
  114.2410  117.8612  105.0076 C   0  0  0  0  0  0  0  0  0  0  0  0
  116.3043  117.4016  104.2607 C   0  0  0  0  0  0  0  0  0  0  0  0
  115.8402  117.7207  103.4343 O   0  0  0  0  0  0  0  0  0  0  0  0
  115.7705  117.0488  105.0292 N   0  0  0  0  0  0  0  0  0  0  0  0
  116.2274  116.7347  105.8428 H   0  0  0  0  0  0  0  0  0  0  0  0
  117.3021  117.4354  104.3185 C   0  0  0  0  0  0  0  0  0  0  0  0
  118.2956  116.0236  104.4592 C   0  0  0  0  0  0  0  0  0  0  0  0
  118.3080  115.9331  103.4634 O   0  0  0  0  0  0  0  0  0  0  0  0
  117.7926  116.7747  104.8868 N   0  0  0  0  0  0  0  0  0  0  0  0
  117.7803  116.8639  105.8671 H   0  0  0  0  0  0  0  0  0  0  0  0
  118.7861  115.3630  105.0275 C   0  0  0  0  0  0  0  0  0  0  0  0
  117.9732  114.0025  105.7262 C   0  0  0  0  0  0  0  0  0  0  0  0
  118.0787  113.4990  104.8687 O   0  0  0  0  0  0  0  0  0  0  0  0
  118.3269  114.9345  105.8056 N   0  0  0  0  0  0  0  0  0  0  0  0
  118.2230  115.4302  106.6499 H   0  0  0  0  0  0  0  0  0  0  0  0
  116.6360  113.9299  106.8249 N   0  0  0  0  0  0  0  0  0  0  0  0
  117.5139  113.5740  106.5045 C   0  0  0  0  0  0  0  0  0  0  0  0
  116.1676  113.4930  107.6185 H   0  0  0  0  0  0  0  0  0  0  0  0
  116.2090  114.7300  106.3579 H   0  0  0  0  0  0  0  0  0  0  0  0
  117.9325  112.7897  106.9622 C   0  0  0  0  0  0  0  0  0  0  0  0
  118.8319  112.8817  107.3897 O   0  0  0  0  0  0  0  0  0  0  0  0
  117.4518  111.9134  106.9926 C   0  0  0  0  0  0  0  0  0  0  0  0
  119.2982  113.7318  107.3602 H   0  0  0  0  0  0  0  0  0  0  0  0
  119.7358  115.1308  104.8177 C   0  0  0  0  0  0  0  0  0  0  0  0
  120.4802  115.6822  105.1942 C   0  0  0  0  0  0  0  0  0  0  0  0
  121.4140  115.3242  105.2005 C   0  0  0  0  0  0  0  0  0  0  0  0
  121.5710  114.3378  105.2481 O   0  0  0  0  0  0  0  0  0  0  0  0
  122.1907  115.9527  105.1592 N   0  0  0  0  0  0  0  0  0  0  0  0
  122.0361  116.9238  105.1124 H   0  0  0  0  0  0  0  0  0  0  0  0
  123.1099  115.6002  105.1654 H   0  0  0  0  0  0  0  0  0  0  0  0
  117.8093  118.1298  103.8081 C   0  0  0  0  0  0  0  0  0  0  0  0
  118.1149  118.9640  104.2670 C   0  0  0  0  0  0  0  0  0  0  0  0
  118.9097  119.4625  103.9210 C   0  0  0  0  0  0  0  0  0  0  0  0
  119.1533  119.4050  102.9529 O   0  0  0  0  0  0  0  0  0  0  0  0
  119.4608  120.0186  104.5432 N   0  0  0  0  0  0  0  0  0  0  0  0
  119.2209  120.0752  105.4964 H   0  0  0  0  0  0  0  0  0  0  0  0
  120.2433  120.5094  104.2025 H   0  0  0  0  0  0  0  0  0  0  0  0
  113.2002  114.5905  103.5458 C   0  0  0  0  0  0  0  0  0  0  0  0
  112.9426  114.8312  102.6100 O   0  0  0  0  0  0  0  0  0  0  0  0
  113.1697  114.2380  101.8767 H   0  0  0  0  0  0  0  0  0  0  0  0
  110.4120  113.6792  105.5158 C   0  0  0  0  0  0  0  0  0  0  0  0
  110.0663  112.9347  104.9448 C   0  0  0  0  0  0  0  0  0  0  0  0
  109.7825  113.0102  103.9889 C   0  0  0  0  0  0  0  0  0  0  0  0
  109.4844  112.1060  103.6826 N   0  0  0  0  0  0  0  0  0  0  0  0
  109.5842  111.4717  104.4493 C   0  0  0  0  0  0  0  0  0  0  0  0
  109.9438  111.9839  105.2293 N   0  0  0  0  0  0  0  0  0  0  0  0
  110.1424  111.6166  106.1209 H   0  0  0  0  0  0  0  0  0  0  0  0
 95 96  1  0  0  0
 95 97  1  0  0  0
 95 98  1  0  0  0
 96 91  1  0  0  0
 96 99  1  0  0  0
 91 92  2  0  0  0
 91 93  1  0  0  0
 93 90  1  0  0  0
 93 94  1  0  0  0
 90103  1  0  0  0
 90 86  1  0  0  0
103104  1  0  0  0
104105  1  0  0  0
105106  2  0  0  0
105107  1  0  0  0
107108  1  0  0  0
107109  1  0  0  0
 86 87  2  0  0  0
 86 88  1  0  0  0
 88 85  1  0  0  0
 88 89  1  0  0  0
 85110  1  0  0  0
 85 81  1  0  0  0
110111  1  0  0  0
111112  1  0  0  0
112113  2  0  0  0
112114  1  0  0  0
114115  1  0  0  0
114116  1  0  0  0
 81 82  2  0  0  0
 81 83  1  0  0  0
 83 79  1  0  0  0
 83 84  1  0  0  0
 79 80  1  0  0  0
 79 75  1  0  0  0
 75 76  2  0  0  0
 75 77  1  0  0  0
 77 74  1  0  0  0
 77 78  1  0  0  0
 74117  1  0  0  0
 74 70  1  0  0  0
117118  1  0  0  0
118119  1  0  0  0
 70 71  2  0  0  0
 70 72  1  0  0  0
 72 69  1  0  0  0
 72 73  1  0  0  0
 69120  1  0  0  0
 69 65  1  0  0  0
120121  1  0  0  0
121125  1  0  0  0
121122  2  0  0  0
122123  1  0  0  0
123124  2  0  0  0
124125  1  0  0  0
125126  1  0  0  0
 65 66  2  0  0  0
 65 67  1  0  0  0
 67  1  1  0  0  0
 67 68  1  0  0  0
  1  2  1  0  0  0
  1 10  1  0  0  0
  2  8  2  0  0  0
  2  3  1  0  0  0
  3  4  2  0  0  0
  4  5  1  0  0  0
  5  6  1  0  0  0
  5  7  2  0  0  0
  6  9  1  0  0  0
  7  8  1  0  0  0
 10 11  2  0  0  0
 10 12  1  0  0  0
 12 14  1  0  0  0
 12 13  1  0  0  0
 14 58  1  0  0  0
 14 15  1  0  0  0
 58 59  1  0  0  0
 59 60  1  0  0  0
 60 61  1  0  0  0
 61 62  1  0  0  0
 62 63  1  0  0  0
 62 64  1  0  0  0
 15 16  2  0  0  0
 15 17  1  0  0  0
 17 19  1  0  0  0
 17 18  1  0  0  0
 19 51  1  0  0  0
 19 20  1  0  0  0
 51 52  1  0  0  0
 52 53  1  0  0  0
 53 54  2  0  0  0
 53 55  1  0  0  0
 55 56  1  0  0  0
 55 57  1  0  0  0
 20 21  2  0  0  0
 20 22  1  0  0  0
 22 24  1  0  0  0
 22 23  1  0  0  0
 24 44  1  0  0  0
 24 25  1  0  0  0
 44 45  1  0  0  0
 45 49  1  0  0  0
 45 46  2  0  0  0
 46 47  1  0  0  0
 47 48  2  0  0  0
 48 49  1  0  0  0
 49 50  1  0  0  0
 25 26  2  0  0  0
 25 27  1  0  0  0
 27 29  1  0  0  0
 27 28  1  0  0  0
 29 41  1  0  0  0
 29 30  1  0  0  0
 41 42  1  0  0  0
 42 43  1  0  0  0
 30 31  2  0  0  0
 30 32  1  0  0  0
 32 36  1  0  0  0
 32 33  1  0  0  0
 33 34  1  0  0  0
 34 35  1  0  0  0
 35 36  1  0  0  0
 36 37  1  0  0  0
 37 38  1  0  0  0
 37 39  2  0  0  0
 38 40  1  0  0  0
 99100  1  0  0  0
 99101  1  0  0  0
100102  1  0  0  0
M  END
> <minimizedAffinity>
-7.58291

$$$$
