


126129  0  0  0  0  0  0  0  0999 V2000
  103.4860   91.4529  109.0529 C   0  0  0  0  0  0  0  0  0  0  0  0
  104.6546   90.8605  108.2998 C   0  0  0  0  0  0  0  0  0  0  0  0
  105.9518   90.8826  108.8432 C   0  0  0  0  0  0  0  0  0  0  0  0
  107.0148   90.2880  108.1592 C   0  0  0  0  0  0  0  0  0  0  0  0
  106.8019   89.6812  106.9150 C   0  0  0  0  0  0  0  0  0  0  0  0
  107.8689   89.0879  106.2414 O   0  0  0  0  0  0  0  0  0  0  0  0
  105.5170   89.6691  106.3593 C   0  0  0  0  0  0  0  0  0  0  0  0
  104.4492   90.2475  107.0535 C   0  0  0  0  0  0  0  0  0  0  0  0
  107.7481   88.6825  105.3205 H   0  0  0  0  0  0  0  0  0  0  0  0
  102.8968   90.4428  110.0025 C   0  0  0  0  0  0  0  0  0  0  0  0
  103.5711   90.0083  110.9730 O   0  0  0  0  0  0  0  0  0  0  0  0
  101.5733   89.9391  109.7759 N   0  0  0  0  0  0  0  0  0  0  0  0
  100.8461   90.6368  109.4949 H   0  0  0  0  0  0  0  0  0  0  0  0
  101.2527   88.5225  109.5358 C   0  0  0  0  0  0  0  0  0  0  0  0
  100.8539   87.8781  110.8424 C   0  0  0  0  0  0  0  0  0  0  0  0
  101.5640   86.9629  111.3492 O   0  0  0  0  0  0  0  0  0  0  0  0
   99.6530   88.3032  111.5016 N   0  0  0  0  0  0  0  0  0  0  0  0
   99.2060   89.1925  111.1810 H   0  0  0  0  0  0  0  0  0  0  0  0
   98.8453   87.3786  112.3053 C   0  0  0  0  0  0  0  0  0  0  0  0
   97.7794   88.1453  113.0506 C   0  0  0  0  0  0  0  0  0  0  0  0
   96.8318   87.5189  113.5947 O   0  0  0  0  0  0  0  0  0  0  0  0
   97.8782   89.5740  113.1965 N   0  0  0  0  0  0  0  0  0  0  0  0
   98.7244   90.0394  112.7902 H   0  0  0  0  0  0  0  0  0  0  0  0
   97.0107   90.3241  114.1201 C   0  0  0  0  0  0  0  0  0  0  0  0
   96.6318   91.6815  113.5629 C   0  0  0  0  0  0  0  0  0  0  0  0
   97.5163   92.5741  113.4548 O   0  0  0  0  0  0  0  0  0  0  0  0
   95.2639   92.0365  113.2836 N   0  0  0  0  0  0  0  0  0  0  0  0
   94.9818   93.0119  113.5417 H   0  0  0  0  0  0  0  0  0  0  0  0
   94.3438   91.3082  112.3910 C   0  0  0  0  0  0  0  0  0  0  0  0
   95.0606   90.7663  111.1748 C   0  0  0  0  0  0  0  0  0  0  0  0
   95.3900   89.5552  111.1279 O   0  0  0  0  0  0  0  0  0  0  0  0
   95.4915   91.6356  110.1187 N   0  0  0  0  0  0  0  0  0  0  0  0
   94.6980   91.8799  108.9268 C   0  0  0  0  0  0  0  0  0  0  0  0
   95.6640   92.4557  107.9018 C   0  0  0  0  0  0  0  0  0  0  0  0
   96.8691   92.9436  108.7030 C   0  0  0  0  0  0  0  0  0  0  0  0
   96.8552   92.1361  110.0021 C   0  0  0  0  0  0  0  0  0  0  0  0
   97.8440   91.0040  109.9486 C   0  0  0  0  0  0  0  0  0  0  0  0
   97.6215   89.9377  109.0890 O   0  0  0  0  0  0  0  0  0  0  0  0
   98.8537   91.0067  110.7029 O   0  0  0  0  0  0  0  0  0  0  0  0
   98.2673   89.1586  109.0487 H   0  0  0  0  0  0  0  0  0  0  0  0
   93.5605   90.2255  113.1611 C   0  0  0  0  0  0  0  0  0  0  0  0
   93.1118   90.7706  114.8440 S   0  0  0  0  0  0  0  0  0  0  0  0
   92.3877   91.8978  114.4287 H   0  0  0  0  0  0  0  0  0  0  0  0
   97.7069   90.4648  115.4911 C   0  0  0  0  0  0  0  0  0  0  0  0
   96.7301   90.4784  116.6387 C   0  0  0  0  0  0  0  0  0  0  0  0
   96.1271   91.5866  117.1885 C   0  0  0  0  0  0  0  0  0  0  0  0
   95.3491   91.2017  118.2186 N   0  0  0  0  0  0  0  0  0  0  0  0
   95.5089   89.8622  118.2765 C   0  0  0  0  0  0  0  0  0  0  0  0
   96.3414   89.3922  117.3298 N   0  0  0  0  0  0  0  0  0  0  0  0
   96.6534   88.4048  117.1958 H   0  0  0  0  0  0  0  0  0  0  0  0
   98.1898   86.3188  111.3944 C   0  0  0  0  0  0  0  0  0  0  0  0
   98.5197   84.8821  111.8343 C   0  0  0  0  0  0  0  0  0  0  0  0
   97.2702   84.1145  112.1669 C   0  0  0  0  0  0  0  0  0  0  0  0
   97.0799   82.9761  111.6614 O   0  0  0  0  0  0  0  0  0  0  0  0
   96.2907   84.6712  113.0460 N   0  0  0  0  0  0  0  0  0  0  0  0
   95.4446   84.1189  113.3107 H   0  0  0  0  0  0  0  0  0  0  0  0
   96.3948   85.6366  113.4283 H   0  0  0  0  0  0  0  0  0  0  0  0
  102.3855   87.7498  108.8132 C   0  0  0  0  0  0  0  0  0  0  0  0
  101.8930   87.0318  107.5449 C   0  0  0  0  0  0  0  0  0  0  0  0
  100.5896   86.2437  107.7681 C   0  0  0  0  0  0  0  0  0  0  0  0
  100.1168   85.4116  106.5576 C   0  0  0  0  0  0  0  0  0  0  0  0
  100.6022   85.9460  105.2828 N   0  0  0  0  0  0  0  0  0  0  0  0
  101.6339   85.7761  105.2154 H   0  0  0  0  0  0  0  0  0  0  0  0
  100.4448   86.9745  105.2605 H   0  0  0  0  0  0  0  0  0  0  0  0
  102.9335   93.6686  110.0981 C   0  0  0  0  0  0  0  0  0  0  0  0
  102.1275   94.0833  109.2230 O   0  0  0  0  0  0  0  0  0  0  0  0
  103.8979   92.6672  109.7640 N   0  0  0  0  0  0  0  0  0  0  0  0
  104.8550   92.7284  110.1832 H   0  0  0  0  0  0  0  0  0  0  0  0
  102.7497   94.0590  111.5354 C   0  0  0  0  0  0  0  0  0  0  0  0
  102.3927   96.5708  111.2962 C   0  0  0  0  0  0  0  0  0  0  0  0
  102.9669   97.5871  110.8075 O   0  0  0  0  0  0  0  0  0  0  0  0
  103.1963   95.4458  111.6912 N   0  0  0  0  0  0  0  0  0  0  0  0
  104.2211   95.6185  111.7784 H   0  0  0  0  0  0  0  0  0  0  0  0
  100.9002   96.5916  111.5500 C   0  0  0  0  0  0  0  0  0  0  0  0
   99.2261   96.6615  109.6496 C   0  0  0  0  0  0  0  0  0  0  0  0
   99.3076   95.4125  109.4875 O   0  0  0  0  0  0  0  0  0  0  0  0
  100.1626   97.3274  110.5127 N   0  0  0  0  0  0  0  0  0  0  0  0
  100.2696   98.3597  110.4107 H   0  0  0  0  0  0  0  0  0  0  0  0
   98.1435   97.4619  108.9651 C   0  0  0  0  0  0  0  0  0  0  0  0
   98.2776   98.9341  109.3524 C   0  0  0  0  0  0  0  0  0  0  0  0
   96.3507   96.7677  110.6473 C   0  0  0  0  0  0  0  0  0  0  0  0
   97.1674   96.8576  111.6037 O   0  0  0  0  0  0  0  0  0  0  0  0
   96.7940   96.9711  109.2944 N   0  0  0  0  0  0  0  0  0  0  0  0
   96.0951   96.7959  108.5416 H   0  0  0  0  0  0  0  0  0  0  0  0
   94.9053   96.4433  110.9343 C   0  0  0  0  0  0  0  0  0  0  0  0
   93.5616   98.2562  112.0935 C   0  0  0  0  0  0  0  0  0  0  0  0
   92.4105   98.1214  112.5948 O   0  0  0  0  0  0  0  0  0  0  0  0
   94.4692   97.1492  112.1435 N   0  0  0  0  0  0  0  0  0  0  0  0
   94.4670   96.6053  113.0300 H   0  0  0  0  0  0  0  0  0  0  0  0
   93.9808   99.6337  111.6072 C   0  0  0  0  0  0  0  0  0  0  0  0
   96.2733  100.5785  112.0182 C   0  0  0  0  0  0  0  0  0  0  0  0
   96.4062  101.2635  110.9667 O   0  0  0  0  0  0  0  0  0  0  0  0
   94.9600  100.2657  112.4942 N   0  0  0  0  0  0  0  0  0  0  0  0
   94.7054  100.5362  113.4681 H   0  0  0  0  0  0  0  0  0  0  0  0
   98.5858  100.9903  112.6984 N   0  0  0  0  0  0  0  0  0  0  0  0
   97.4902  100.0117  112.7185 C   0  0  0  0  0  0  0  0  0  0  0  0
   99.4479  100.5267  113.0700 H   0  0  0  0  0  0  0  0  0  0  0  0
   98.7993  101.2295  111.7039 H   0  0  0  0  0  0  0  0  0  0  0  0
   97.1627   99.5606  114.1594 C   0  0  0  0  0  0  0  0  0  0  0  0
   96.5540   98.2909  114.1098 O   0  0  0  0  0  0  0  0  0  0  0  0
   98.4088   99.4915  115.0535 C   0  0  0  0  0  0  0  0  0  0  0  0
   96.1300   98.1409  114.9929 H   0  0  0  0  0  0  0  0  0  0  0  0
   92.7640  100.5498  111.3901 C   0  0  0  0  0  0  0  0  0  0  0  0
   92.3632  100.7185  109.9136 C   0  0  0  0  0  0  0  0  0  0  0  0
   93.5570  100.7081  108.9924 C   0  0  0  0  0  0  0  0  0  0  0  0
   93.8188   99.7078  108.2746 O   0  0  0  0  0  0  0  0  0  0  0  0
   94.3991  101.8570  108.9181 N   0  0  0  0  0  0  0  0  0  0  0  0
   95.2163  101.8695  108.2717 H   0  0  0  0  0  0  0  0  0  0  0  0
   94.1788  102.7166  109.4731 H   0  0  0  0  0  0  0  0  0  0  0  0
   94.5691   94.9240  111.0172 C   0  0  0  0  0  0  0  0  0  0  0  0
   93.0831   94.5117  110.9666 C   0  0  0  0  0  0  0  0  0  0  0  0
   92.2214   95.2073  109.9378 C   0  0  0  0  0  0  0  0  0  0  0  0
   92.3825   94.9110  108.7273 O   0  0  0  0  0  0  0  0  0  0  0  0
   91.2653   96.2182  110.2742 N   0  0  0  0  0  0  0  0  0  0  0  0
   91.2040   96.6422  111.2227 H   0  0  0  0  0  0  0  0  0  0  0  0
   90.6732   96.6427  109.5216 H   0  0  0  0  0  0  0  0  0  0  0  0
  100.6296   97.1979  112.9427 C   0  0  0  0  0  0  0  0  0  0  0  0
  100.4489   96.1875  113.9032 O   0  0  0  0  0  0  0  0  0  0  0  0
  101.3556   95.9575  114.2445 H   0  0  0  0  0  0  0  0  0  0  0  0
  103.5175   93.1239  112.4879 C   0  0  0  0  0  0  0  0  0  0  0  0
  102.5862   92.1200  113.1064 C   0  0  0  0  0  0  0  0  0  0  0  0
  101.2086   92.1065  112.9877 C   0  0  0  0  0  0  0  0  0  0  0  0
  100.7129   91.0961  113.7318 N   0  0  0  0  0  0  0  0  0  0  0  0
  101.8053   90.5188  114.2838 C   0  0  0  0  0  0  0  0  0  0  0  0
  102.9574   91.1153  113.9137 N   0  0  0  0  0  0  0  0  0  0  0  0
  103.9204   90.8651  114.2258 H   0  0  0  0  0  0  0  0  0  0  0  0
 95 96  1  0  0  0
 96 91  1  0  0  0
 91 92  2  0  0  0
 91 93  1  0  0  0
 93 90  1  0  0  0
 90103  1  0  0  0
103104  1  0  0  0
104105  1  0  0  0
105106  2  0  0  0
105107  1  0  0  0
 90 86  1  0  0  0
 86 87  2  0  0  0
 86 88  1  0  0  0
 88 85  1  0  0  0
 85110  1  0  0  0
110111  1  0  0  0
111112  1  0  0  0
112113  2  0  0  0
112114  1  0  0  0
 85 81  1  0  0  0
 81 82  2  0  0  0
 81 83  1  0  0  0
 83 79  1  0  0  0
 79 80  1  0  0  0
 79 75  1  0  0  0
 75 76  2  0  0  0
 75 77  1  0  0  0
 77 74  1  0  0  0
 74117  1  0  0  0
117118  1  0  0  0
 74 70  1  0  0  0
 70 71  2  0  0  0
 70 72  1  0  0  0
 72 69  1  0  0  0
 69120  1  0  0  0
120121  1  0  0  0
121122  2  0  0  0
122123  1  0  0  0
123124  2  0  0  0
124125  1  0  0  0
 69 65  1  0  0  0
 65 66  2  0  0  0
 65 67  1  0  0  0
 67  1  1  0  0  0
  1  2  1  0  0  0
  2  3  2  0  0  0
  3  4  1  0  0  0
  4  5  2  0  0  0
  5  6  1  0  0  0
  5  7  1  0  0  0
  7  8  2  0  0  0
  1 10  1  0  0  0
 10 11  2  0  0  0
 10 12  1  0  0  0
 12 14  1  0  0  0
 14 58  1  0  0  0
 58 59  1  0  0  0
 59 60  1  0  0  0
 60 61  1  0  0  0
 61 62  1  0  0  0
 14 15  1  0  0  0
 15 16  2  0  0  0
 15 17  1  0  0  0
 17 19  1  0  0  0
 19 51  1  0  0  0
 51 52  1  0  0  0
 52 53  1  0  0  0
 53 54  2  0  0  0
 53 55  1  0  0  0
 19 20  1  0  0  0
 20 21  2  0  0  0
 20 22  1  0  0  0
 22 24  1  0  0  0
 24 44  1  0  0  0
 44 45  1  0  0  0
 45 46  2  0  0  0
 46 47  1  0  0  0
 47 48  2  0  0  0
 48 49  1  0  0  0
 24 25  1  0  0  0
 25 26  2  0  0  0
 25 27  1  0  0  0
 27 29  1  0  0  0
 29 41  1  0  0  0
 41 42  1  0  0  0
 29 30  1  0  0  0
 30 31  2  0  0  0
 30 32  1  0  0  0
 32 33  1  0  0  0
 33 34  1  0  0  0
 34 35  1  0  0  0
 35 36  1  0  0  0
 36 37  1  0  0  0
 37 38  1  0  0  0
 37 39  2  0  0  0
 96 99  1  0  0  0
 99100  1  0  0  0
 99101  1  0  0  0
125121  1  0  0  0
  8  2  1  0  0  0
 49 45  1  0  0  0
 36 32  1  0  0  0
 95 97  1  0  0  0
 95 98  1  0  0  0
 93 94  1  0  0  0
107108  1  0  0  0
107109  1  0  0  0
 88 89  1  0  0  0
114115  1  0  0  0
114116  1  0  0  0
 83 84  1  0  0  0
 77 78  1  0  0  0
118119  1  0  0  0
 72 73  1  0  0  0
125126  1  0  0  0
 67 68  1  0  0  0
  6  9  1  0  0  0
 12 13  1  0  0  0
 62 63  1  0  0  0
 62 64  1  0  0  0
 17 18  1  0  0  0
 55 56  1  0  0  0
 55 57  1  0  0  0
 22 23  1  0  0  0
 49 50  1  0  0  0
 27 28  1  0  0  0
 42 43  1  0  0  0
 38 40  1  0  0  0
100102  1  0  0  0
M  END
> <minimizedAffinity>
-7.26249

$$$$



126129  0  0  0  0  0  0  0  0999 V2000
  112.9116  111.8575  105.9829 C   0  0  0  0  0  0  0  0  0  0  0  0
  111.5476  111.9252  105.3360 C   0  0  0  0  0  0  0  0  0  0  0  0
  110.6231  110.8757  105.4849 C   0  0  0  0  0  0  0  0  0  0  0  0
  109.3478  110.9722  104.9231 C   0  0  0  0  0  0  0  0  0  0  0  0
  108.9846  112.1078  104.1883 C   0  0  0  0  0  0  0  0  0  0  0  0
  107.7082  112.1959  103.6338 O   0  0  0  0  0  0  0  0  0  0  0  0
  109.9043  113.1500  104.0214 C   0  0  0  0  0  0  0  0  0  0  0  0
  111.1745  113.0615  104.6005 C   0  0  0  0  0  0  0  0  0  0  0  0
  107.4381  112.9872  103.0612 H   0  0  0  0  0  0  0  0  0  0  0  0
  112.9410  112.6699  107.2511 C   0  0  0  0  0  0  0  0  0  0  0  0
  112.3147  112.2833  108.2727 O   0  0  0  0  0  0  0  0  0  0  0  0
  113.6519  113.9150  107.2833 N   0  0  0  0  0  0  0  0  0  0  0  0
  114.5906  113.9328  106.8219 H   0  0  0  0  0  0  0  0  0  0  0  0
  113.0299  115.2206  107.5588 C   0  0  0  0  0  0  0  0  0  0  0  0
  113.1087  116.0769  106.3171 C   0  0  0  0  0  0  0  0  0  0  0  0
  112.1746  116.8796  106.0311 O   0  0  0  0  0  0  0  0  0  0  0  0
  114.2483  115.9648  105.4533 N   0  0  0  0  0  0  0  0  0  0  0  0
  115.0909  115.4626  105.8158 H   0  0  0  0  0  0  0  0  0  0  0  0
  114.1419  116.1718  104.0045 C   0  0  0  0  0  0  0  0  0  0  0  0
  115.2468  117.0878  103.5359 C   0  0  0  0  0  0  0  0  0  0  0  0
  114.9533  118.1592  102.9423 O   0  0  0  0  0  0  0  0  0  0  0  0
  116.6223  116.7746  103.8222 N   0  0  0  0  0  0  0  0  0  0  0  0
  116.8097  115.9104  104.3841 H   0  0  0  0  0  0  0  0  0  0  0  0
  117.7033  117.7523  103.6125 C   0  0  0  0  0  0  0  0  0  0  0  0
  119.0297  117.0763  103.3297 C   0  0  0  0  0  0  0  0  0  0  0  0
  119.7305  117.4718  102.3585 O   0  0  0  0  0  0  0  0  0  0  0  0
  119.4549  115.9010  104.0461 N   0  0  0  0  0  0  0  0  0  0  0  0
  119.9258  115.1607  103.4735 H   0  0  0  0  0  0  0  0  0  0  0  0
  119.5982  115.7812  105.5086 C   0  0  0  0  0  0  0  0  0  0  0  0
  119.5972  114.3354  105.9515 C   0  0  0  0  0  0  0  0  0  0  0  0
  119.3863  113.4227  105.1149 O   0  0  0  0  0  0  0  0  0  0  0  0
  119.7049  113.9837  107.3377 N   0  0  0  0  0  0  0  0  0  0  0  0
  120.9709  113.6594  107.9717 C   0  0  0  0  0  0  0  0  0  0  0  0
  120.6108  112.9278  109.2564 C   0  0  0  0  0  0  0  0  0  0  0  0
  119.1475  113.2712  109.5273 C   0  0  0  0  0  0  0  0  0  0  0  0
  118.5551  113.6527  108.1696 C   0  0  0  0  0  0  0  0  0  0  0  0
  117.7707  112.5130  107.5795 C   0  0  0  0  0  0  0  0  0  0  0  0
  116.6453  112.7782  106.8125 O   0  0  0  0  0  0  0  0  0  0  0  0
  118.1140  111.3216  107.8059 O   0  0  0  0  0  0  0  0  0  0  0  0
  116.0949  112.0248  106.4187 H   0  0  0  0  0  0  0  0  0  0  0  0
  120.8260  116.5658  106.0144 C   0  0  0  0  0  0  0  0  0  0  0  0
  120.4355  117.5795  107.4808 S   0  0  0  0  0  0  0  0  0  0  0  0
  120.0035  116.5052  108.2724 H   0  0  0  0  0  0  0  0  0  0  0  0
  117.8090  118.6840  104.8392 C   0  0  0  0  0  0  0  0  0  0  0  0
  118.6332  119.9151  104.5629 C   0  0  0  0  0  0  0  0  0  0  0  0
  119.2929  120.6854  105.4932 C   0  0  0  0  0  0  0  0  0  0  0  0
  119.8880  121.7202  104.8690 N   0  0  0  0  0  0  0  0  0  0  0  0
  119.5633  121.5581  103.5684 C   0  0  0  0  0  0  0  0  0  0  0  0
  118.8021  120.4705  103.3498 N   0  0  0  0  0  0  0  0  0  0  0  0
  118.3929  120.1572  102.4416 H   0  0  0  0  0  0  0  0  0  0  0  0
  114.2337  114.8186  103.2679 C   0  0  0  0  0  0  0  0  0  0  0  0
  114.9963  113.7585  104.0808 C   0  0  0  0  0  0  0  0  0  0  0  0
  116.3056  113.4104  103.4283 C   0  0  0  0  0  0  0  0  0  0  0  0
  116.8354  114.2151  102.6162 O   0  0  0  0  0  0  0  0  0  0  0  0
  116.9500  112.1677  103.7154 N   0  0  0  0  0  0  0  0  0  0  0  0
  117.8804  111.9465  103.2956 H   0  0  0  0  0  0  0  0  0  0  0  0
  116.5023  111.4580  104.3357 H   0  0  0  0  0  0  0  0  0  0  0  0
  113.6144  115.9288  108.8075 C   0  0  0  0  0  0  0  0  0  0  0  0
  114.8206  115.1795  109.3992 C   0  0  0  0  0  0  0  0  0  0  0  0
  115.9420  116.1229  109.8707 C   0  0  0  0  0  0  0  0  0  0  0  0
  115.5877  116.9947  111.0937 C   0  0  0  0  0  0  0  0  0  0  0  0
  116.5342  118.0947  111.2943 N   0  0  0  0  0  0  0  0  0  0  0  0
  116.3971  118.8022  110.5337 H   0  0  0  0  0  0  0  0  0  0  0  0
  117.5055  117.7286  111.2199 H   0  0  0  0  0  0  0  0  0  0  0  0
  114.6468  110.0455  106.0976 C   0  0  0  0  0  0  0  0  0  0  0  0
  115.2935  110.3511  105.0604 O   0  0  0  0  0  0  0  0  0  0  0  0
  113.2870  110.4638  106.2409 N   0  0  0  0  0  0  0  0  0  0  0  0
  112.6047  109.8144  106.6972 H   0  0  0  0  0  0  0  0  0  0  0  0
  115.3535  109.4342  107.2719 C   0  0  0  0  0  0  0  0  0  0  0  0
  117.3986  107.9381  107.5421 C   0  0  0  0  0  0  0  0  0  0  0  0
  118.4851  107.6692  106.9517 O   0  0  0  0  0  0  0  0  0  0  0  0
  116.2931  108.4303  106.7656 N   0  0  0  0  0  0  0  0  0  0  0  0
  116.3660  108.3118  105.7321 H   0  0  0  0  0  0  0  0  0  0  0  0
  117.2458  107.6456  109.0198 C   0  0  0  0  0  0  0  0  0  0  0  0
  118.4798  107.9350  111.2136 C   0  0  0  0  0  0  0  0  0  0  0  0
  117.3986  108.1312  111.8343 O   0  0  0  0  0  0  0  0  0  0  0  0
  118.4783  107.9097  109.7766 N   0  0  0  0  0  0  0  0  0  0  0  0
  119.3895  108.0395  109.2866 H   0  0  0  0  0  0  0  0  0  0  0  0
  119.7713  107.7050  111.9621 C   0  0  0  0  0  0  0  0  0  0  0  0
  120.9455  107.7879  110.9876 C   0  0  0  0  0  0  0  0  0  0  0  0
  120.5754  106.1766  113.8445 C   0  0  0  0  0  0  0  0  0  0  0  0
  121.4118  107.0378  114.2300 O   0  0  0  0  0  0  0  0  0  0  0  0
  119.7857  106.4106  112.6656 N   0  0  0  0  0  0  0  0  0  0  0  0
  119.1778  105.6268  112.3463 H   0  0  0  0  0  0  0  0  0  0  0  0
  120.4115  104.8984  114.6293 C   0  0  0  0  0  0  0  0  0  0  0  0
  119.0857  102.7414  114.4692 C   0  0  0  0  0  0  0  0  0  0  0  0
  117.9764  102.5088  115.0258 O   0  0  0  0  0  0  0  0  0  0  0  0
  119.3652  104.0721  114.0186 N   0  0  0  0  0  0  0  0  0  0  0  0
  118.5689  104.5737  113.5758 H   0  0  0  0  0  0  0  0  0  0  0  0
  120.0000  101.5670  114.1619 C   0  0  0  0  0  0  0  0  0  0  0  0
  119.8290   99.4235  115.4630 C   0  0  0  0  0  0  0  0  0  0  0  0
  120.0724   98.6002  114.5381 O   0  0  0  0  0  0  0  0  0  0  0  0
  120.3044  100.7691  115.3518 N   0  0  0  0  0  0  0  0  0  0  0  0
  120.9046  101.1502  116.1139 H   0  0  0  0  0  0  0  0  0  0  0  0
  119.1956   99.9206  117.7720 N   0  0  0  0  0  0  0  0  0  0  0  0
  118.9614   99.0188  116.6361 C   0  0  0  0  0  0  0  0  0  0  0  0
  118.6849   99.5415  118.6038 H   0  0  0  0  0  0  0  0  0  0  0  0
  120.2096   99.8843  118.0215 H   0  0  0  0  0  0  0  0  0  0  0  0
  117.4658   98.9713  116.2520 C   0  0  0  0  0  0  0  0  0  0  0  0
  117.2887   99.6545  115.0327 O   0  0  0  0  0  0  0  0  0  0  0  0
  116.9382   97.5364  116.1111 C   0  0  0  0  0  0  0  0  0  0  0  0
  116.3178   99.8312  114.9407 H   0  0  0  0  0  0  0  0  0  0  0  0
  121.2914  102.0254  113.4623 C   0  0  0  0  0  0  0  0  0  0  0  0
  122.5684  101.3621  114.0086 C   0  0  0  0  0  0  0  0  0  0  0  0
  122.9836  100.1634  113.1933 C   0  0  0  0  0  0  0  0  0  0  0  0
  124.1207   99.6417  113.3323 O   0  0  0  0  0  0  0  0  0  0  0  0
  122.0684   99.5973  112.2572 N   0  0  0  0  0  0  0  0  0  0  0  0
  122.3363   98.7576  111.7012 H   0  0  0  0  0  0  0  0  0  0  0  0
  121.1024   99.9866  112.1534 H   0  0  0  0  0  0  0  0  0  0  0  0
  120.1628  105.0837  116.1564 C   0  0  0  0  0  0  0  0  0  0  0  0
  119.1769  106.1860  116.5967 C   0  0  0  0  0  0  0  0  0  0  0  0
  117.7583  105.7508  116.8849 C   0  0  0  0  0  0  0  0  0  0  0  0
  116.8601  106.6291  116.9139 O   0  0  0  0  0  0  0  0  0  0  0  0
  117.3999  104.3946  117.1705 N   0  0  0  0  0  0  0  0  0  0  0  0
  118.1060  103.6496  117.3421 H   0  0  0  0  0  0  0  0  0  0  0  0
  116.3949  104.1470  117.3311 H   0  0  0  0  0  0  0  0  0  0  0  0
  116.7980  106.1807  109.2047 C   0  0  0  0  0  0  0  0  0  0  0  0
  115.7659  105.8548  108.3077 O   0  0  0  0  0  0  0  0  0  0  0  0
  116.2072  105.5520  107.4680 H   0  0  0  0  0  0  0  0  0  0  0  0
  114.3669  108.8076  108.2744 C   0  0  0  0  0  0  0  0  0  0  0  0
  114.1517  109.7234  109.4459 C   0  0  0  0  0  0  0  0  0  0  0  0
  115.1317  110.4335  110.1148 C   0  0  0  0  0  0  0  0  0  0  0  0
  114.5689  111.0929  111.1486 N   0  0  0  0  0  0  0  0  0  0  0  0
  113.2571  110.7671  111.0801 C   0  0  0  0  0  0  0  0  0  0  0  0
  112.9744  109.9434  110.0498 N   0  0  0  0  0  0  0  0  0  0  0  0
  112.0438  109.5395  109.8081 H   0  0  0  0  0  0  0  0  0  0  0  0
 95 96  1  0  0  0
 96 91  1  0  0  0
 91 92  2  0  0  0
 91 93  1  0  0  0
 93 90  1  0  0  0
 90103  1  0  0  0
103104  1  0  0  0
104105  1  0  0  0
105106  2  0  0  0
105107  1  0  0  0
 90 86  1  0  0  0
 86 87  2  0  0  0
 86 88  1  0  0  0
 88 85  1  0  0  0
 85110  1  0  0  0
110111  1  0  0  0
111112  1  0  0  0
112113  2  0  0  0
112114  1  0  0  0
 85 81  1  0  0  0
 81 82  2  0  0  0
 81 83  1  0  0  0
 83 79  1  0  0  0
 79 80  1  0  0  0
 79 75  1  0  0  0
 75 76  2  0  0  0
 75 77  1  0  0  0
 77 74  1  0  0  0
 74117  1  0  0  0
117118  1  0  0  0
 74 70  1  0  0  0
 70 71  2  0  0  0
 70 72  1  0  0  0
 72 69  1  0  0  0
 69120  1  0  0  0
120121  1  0  0  0
121122  2  0  0  0
122123  1  0  0  0
123124  2  0  0  0
124125  1  0  0  0
 69 65  1  0  0  0
 65 66  2  0  0  0
 65 67  1  0  0  0
 67  1  1  0  0  0
  1  2  1  0  0  0
  2  3  2  0  0  0
  3  4  1  0  0  0
  4  5  2  0  0  0
  5  6  1  0  0  0
  5  7  1  0  0  0
  7  8  2  0  0  0
  1 10  1  0  0  0
 10 11  2  0  0  0
 10 12  1  0  0  0
 12 14  1  0  0  0
 14 58  1  0  0  0
 58 59  1  0  0  0
 59 60  1  0  0  0
 60 61  1  0  0  0
 61 62  1  0  0  0
 14 15  1  0  0  0
 15 16  2  0  0  0
 15 17  1  0  0  0
 17 19  1  0  0  0
 19 51  1  0  0  0
 51 52  1  0  0  0
 52 53  1  0  0  0
 53 54  2  0  0  0
 53 55  1  0  0  0
 19 20  1  0  0  0
 20 21  2  0  0  0
 20 22  1  0  0  0
 22 24  1  0  0  0
 24 44  1  0  0  0
 44 45  1  0  0  0
 45 46  2  0  0  0
 46 47  1  0  0  0
 47 48  2  0  0  0
 48 49  1  0  0  0
 24 25  1  0  0  0
 25 26  2  0  0  0
 25 27  1  0  0  0
 27 29  1  0  0  0
 29 41  1  0  0  0
 41 42  1  0  0  0
 29 30  1  0  0  0
 30 31  2  0  0  0
 30 32  1  0  0  0
 32 33  1  0  0  0
 33 34  1  0  0  0
 34 35  1  0  0  0
 35 36  1  0  0  0
 36 37  1  0  0  0
 37 38  1  0  0  0
 37 39  2  0  0  0
 96 99  1  0  0  0
 99100  1  0  0  0
 99101  1  0  0  0
125121  1  0  0  0
  8  2  1  0  0  0
 49 45  1  0  0  0
 36 32  1  0  0  0
 95 97  1  0  0  0
 95 98  1  0  0  0
 93 94  1  0  0  0
107108  1  0  0  0
107109  1  0  0  0
 88 89  1  0  0  0
114115  1  0  0  0
114116  1  0  0  0
 83 84  1  0  0  0
 77 78  1  0  0  0
118119  1  0  0  0
 72 73  1  0  0  0
125126  1  0  0  0
 67 68  1  0  0  0
  6  9  1  0  0  0
 12 13  1  0  0  0
 62 63  1  0  0  0
 62 64  1  0  0  0
 17 18  1  0  0  0
 55 56  1  0  0  0
 55 57  1  0  0  0
 22 23  1  0  0  0
 49 50  1  0  0  0
 27 28  1  0  0  0
 42 43  1  0  0  0
 38 40  1  0  0  0
100102  1  0  0  0
M  END
> <minimizedAffinity>
-7.08834

$$$$



126129  0  0  0  0  0  0  0  0999 V2000
  103.3797   90.2284  111.2183 C   0  0  0  0  0  0  0  0  0  0  0  0
  103.8278   90.0504  109.7861 C   0  0  0  0  0  0  0  0  0  0  0  0
  103.4941   88.8916  109.0622 C   0  0  0  0  0  0  0  0  0  0  0  0
  103.8722   88.7609  107.7239 C   0  0  0  0  0  0  0  0  0  0  0  0
  104.6055   89.7754  107.0956 C   0  0  0  0  0  0  0  0  0  0  0  0
  104.9759   89.6368  105.7585 O   0  0  0  0  0  0  0  0  0  0  0  0
  104.9560   90.9250  107.8136 C   0  0  0  0  0  0  0  0  0  0  0  0
  104.5604   91.0640  109.1481 C   0  0  0  0  0  0  0  0  0  0  0  0
  105.5443   90.3368  105.2960 H   0  0  0  0  0  0  0  0  0  0  0  0
  102.2214   91.1880  111.2991 C   0  0  0  0  0  0  0  0  0  0  0  0
  101.2929   91.1423  110.4498 O   0  0  0  0  0  0  0  0  0  0  0  0
  102.1961   92.1898  112.3250 N   0  0  0  0  0  0  0  0  0  0  0  0
  102.4813   91.8874  113.2850 H   0  0  0  0  0  0  0  0  0  0  0  0
  102.1781   93.6398  112.0708 C   0  0  0  0  0  0  0  0  0  0  0  0
  100.7461   94.1198  112.0505 C   0  0  0  0  0  0  0  0  0  0  0  0
  100.1563   94.4238  113.1268 O   0  0  0  0  0  0  0  0  0  0  0  0
  100.0517   94.2171  110.7992 N   0  0  0  0  0  0  0  0  0  0  0  0
  100.6159   94.1680  109.9201 H   0  0  0  0  0  0  0  0  0  0  0  0
   98.6046   93.9954  110.7005 C   0  0  0  0  0  0  0  0  0  0  0  0
   97.8955   95.3162  110.5212 C   0  0  0  0  0  0  0  0  0  0  0  0
   98.0182   95.9427  109.4355 O   0  0  0  0  0  0  0  0  0  0  0  0
   97.0327   95.8252  111.5549 N   0  0  0  0  0  0  0  0  0  0  0  0
   96.9047   95.2304  112.4079 H   0  0  0  0  0  0  0  0  0  0  0  0
   96.1317   96.9670  111.3248 C   0  0  0  0  0  0  0  0  0  0  0  0
   95.8885   97.7596  112.5932 C   0  0  0  0  0  0  0  0  0  0  0  0
   95.8485   97.1572  113.7005 O   0  0  0  0  0  0  0  0  0  0  0  0
   95.5593   99.1618  112.5651 N   0  0  0  0  0  0  0  0  0  0  0  0
   94.8249   99.4738  113.2440 H   0  0  0  0  0  0  0  0  0  0  0  0
   96.3621  100.2288  111.9398 C   0  0  0  0  0  0  0  0  0  0  0  0
   97.8443   99.9818  112.1087 C   0  0  0  0  0  0  0  0  0  0  0  0
   98.5152   99.5125  111.1563 O   0  0  0  0  0  0  0  0  0  0  0  0
   98.4847  100.1510  113.3808 N   0  0  0  0  0  0  0  0  0  0  0  0
   99.1504  101.3821  113.7696 C   0  0  0  0  0  0  0  0  0  0  0  0
  100.0530  101.0094  114.9365 C   0  0  0  0  0  0  0  0  0  0  0  0
   99.5185   99.6777  115.4592 C   0  0  0  0  0  0  0  0  0  0  0  0
   98.7694   99.0446  114.2854 C   0  0  0  0  0  0  0  0  0  0  0  0
   99.6075   97.9947  113.6089 C   0  0  0  0  0  0  0  0  0  0  0  0
  100.8598   98.3294  113.1139 O   0  0  0  0  0  0  0  0  0  0  0  0
   99.1632   96.8244  113.4629 O   0  0  0  0  0  0  0  0  0  0  0  0
  101.4335   97.6412  112.6420 H   0  0  0  0  0  0  0  0  0  0  0  0
   95.9510  100.4465  110.4693 C   0  0  0  0  0  0  0  0  0  0  0  0
   94.5357  101.5882  110.3148 S   0  0  0  0  0  0  0  0  0  0  0  0
   95.1631  102.6639  110.9603 H   0  0  0  0  0  0  0  0  0  0  0  0
   94.8007   96.4678  110.7220 C   0  0  0  0  0  0  0  0  0  0  0  0
   94.2760   97.3780  109.6415 C   0  0  0  0  0  0  0  0  0  0  0  0
   94.9330   97.7461  108.4896 C   0  0  0  0  0  0  0  0  0  0  0  0
   94.1580   98.5983  107.7912 N   0  0  0  0  0  0  0  0  0  0  0  0
   93.0474   98.7366  108.5468 C   0  0  0  0  0  0  0  0  0  0  0  0
   93.0883   98.0077  109.6769 N   0  0  0  0  0  0  0  0  0  0  0  0
   92.3727   97.9788  110.4368 H   0  0  0  0  0  0  0  0  0  0  0  0
   98.2912   93.0652  109.5093 C   0  0  0  0  0  0  0  0  0  0  0  0
   97.2504   91.9892  109.8629 C   0  0  0  0  0  0  0  0  0  0  0  0
   96.4749   91.5619  108.6475 C   0  0  0  0  0  0  0  0  0  0  0  0
   96.8083   91.9869  107.5092 O   0  0  0  0  0  0  0  0  0  0  0  0
   95.3549   90.6837  108.7750 N   0  0  0  0  0  0  0  0  0  0  0  0
   94.8444   90.3530  107.9259 H   0  0  0  0  0  0  0  0  0  0  0  0
   95.0206   90.3674  109.7115 H   0  0  0  0  0  0  0  0  0  0  0  0
  102.9608   94.0505  110.7975 C   0  0  0  0  0  0  0  0  0  0  0  0
  104.3358   94.6594  111.1220 C   0  0  0  0  0  0  0  0  0  0  0  0
  104.3078   95.5869  112.3502 C   0  0  0  0  0  0  0  0  0  0  0  0
  104.2903   97.0955  112.0263 C   0  0  0  0  0  0  0  0  0  0  0  0
  103.0455   97.5183  111.3799 N   0  0  0  0  0  0  0  0  0  0  0  0
  102.2701   97.4850  112.0839 H   0  0  0  0  0  0  0  0  0  0  0  0
  102.8129   96.8515  110.6155 H   0  0  0  0  0  0  0  0  0  0  0  0
  103.4678   88.6062  113.1335 C   0  0  0  0  0  0  0  0  0  0  0  0
  104.6712   88.7826  113.4624 O   0  0  0  0  0  0  0  0  0  0  0  0
  103.0332   88.9329  111.8110 N   0  0  0  0  0  0  0  0  0  0  0  0
  102.3257   88.3176  111.3459 H   0  0  0  0  0  0  0  0  0  0  0  0
  102.4458   88.2605  114.1767 C   0  0  0  0  0  0  0  0  0  0  0  0
  102.2523   89.9695  116.0570 C   0  0  0  0  0  0  0  0  0  0  0  0
  102.9685   90.8044  116.6827 O   0  0  0  0  0  0  0  0  0  0  0  0
  102.8872   88.8298  115.4526 N   0  0  0  0  0  0  0  0  0  0  0  0
  103.8610   88.6248  115.7643 H   0  0  0  0  0  0  0  0  0  0  0  0
  100.7462   90.1245  116.0400 C   0  0  0  0  0  0  0  0  0  0  0  0
   98.8346   88.5860  116.6708 C   0  0  0  0  0  0  0  0  0  0  0  0
   98.5643   89.2838  117.6871 O   0  0  0  0  0  0  0  0  0  0  0  0
  100.0484   88.8341  115.9424 N   0  0  0  0  0  0  0  0  0  0  0  0
  100.3954   88.0852  115.3051 H   0  0  0  0  0  0  0  0  0  0  0  0
   97.8881   87.5081  116.1979 C   0  0  0  0  0  0  0  0  0  0  0  0
   98.6708   86.4478  115.4243 C   0  0  0  0  0  0  0  0  0  0  0  0
   97.0230   88.5638  114.0385 C   0  0  0  0  0  0  0  0  0  0  0  0
   98.1970   88.7157  113.6043 O   0  0  0  0  0  0  0  0  0  0  0  0
   96.8011   88.0473  115.3622 N   0  0  0  0  0  0  0  0  0  0  0  0
   95.8149   88.0284  115.6980 H   0  0  0  0  0  0  0  0  0  0  0  0
   95.8534   88.9301  113.1583 C   0  0  0  0  0  0  0  0  0  0  0  0
   96.1784   87.7944  110.9132 C   0  0  0  0  0  0  0  0  0  0  0  0
   95.3655   87.8132  109.9472 O   0  0  0  0  0  0  0  0  0  0  0  0
   96.2763   88.9497  111.7543 N   0  0  0  0  0  0  0  0  0  0  0  0
   96.2390   89.8668  111.2650 H   0  0  0  0  0  0  0  0  0  0  0  0
   97.1245   86.6117  111.0382 C   0  0  0  0  0  0  0  0  0  0  0  0
   98.3223   87.3487  108.9552 C   0  0  0  0  0  0  0  0  0  0  0  0
   99.1090   88.1975  109.4583 O   0  0  0  0  0  0  0  0  0  0  0  0
   97.7990   86.2993  109.7762 N   0  0  0  0  0  0  0  0  0  0  0  0
   97.9466   85.3118  109.4771 H   0  0  0  0  0  0  0  0  0  0  0  0
   97.5867   88.9035  107.2170 N   0  0  0  0  0  0  0  0  0  0  0  0
   97.8608   87.4924  107.5203 C   0  0  0  0  0  0  0  0  0  0  0  0
   97.1480   88.9569  106.2678 H   0  0  0  0  0  0  0  0  0  0  0  0
   96.8618   89.2520  107.8840 H   0  0  0  0  0  0  0  0  0  0  0  0
   98.8801   86.8895  106.5282 C   0  0  0  0  0  0  0  0  0  0  0  0
   99.9275   86.2951  107.2594 O   0  0  0  0  0  0  0  0  0  0  0  0
   98.2506   85.8413  105.5998 C   0  0  0  0  0  0  0  0  0  0  0  0
  100.6745   86.1496  106.6246 H   0  0  0  0  0  0  0  0  0  0  0  0
   96.4067   85.3719  111.5993 C   0  0  0  0  0  0  0  0  0  0  0  0
   97.0976   84.7507  112.8264 C   0  0  0  0  0  0  0  0  0  0  0  0
   97.9202   83.5390  112.4670 C   0  0  0  0  0  0  0  0  0  0  0  0
   98.9384   83.2199  113.1348 O   0  0  0  0  0  0  0  0  0  0  0  0
   97.5322   82.7276  111.3600 N   0  0  0  0  0  0  0  0  0  0  0  0
   98.0813   81.8772  111.1127 H   0  0  0  0  0  0  0  0  0  0  0  0
   96.6662   82.9477  110.8149 H   0  0  0  0  0  0  0  0  0  0  0  0
   95.1195   90.2496  113.5437 C   0  0  0  0  0  0  0  0  0  0  0  0
   95.7420   91.5822  113.0772 C   0  0  0  0  0  0  0  0  0  0  0  0
   96.5309   92.3587  114.1065 C   0  0  0  0  0  0  0  0  0  0  0  0
   96.9714   93.4919  113.7888 O   0  0  0  0  0  0  0  0  0  0  0  0
   96.8371   91.8446  115.4070 N   0  0  0  0  0  0  0  0  0  0  0  0
   96.6653   90.8540  115.6758 H   0  0  0  0  0  0  0  0  0  0  0  0
   97.3604   92.4416  116.0904 H   0  0  0  0  0  0  0  0  0  0  0  0
  100.3433   91.0499  114.8732 C   0  0  0  0  0  0  0  0  0  0  0  0
  100.8835   92.3364  115.0438 O   0  0  0  0  0  0  0  0  0  0  0  0
  101.7921   92.3170  114.6369 H   0  0  0  0  0  0  0  0  0  0  0  0
  102.2376   86.7395  114.2960 C   0  0  0  0  0  0  0  0  0  0  0  0
  101.8412   86.1553  112.9696 C   0  0  0  0  0  0  0  0  0  0  0  0
  100.6360   86.3521  112.3211 C   0  0  0  0  0  0  0  0  0  0  0  0
  100.6203   85.6175  111.1895 N   0  0  0  0  0  0  0  0  0  0  0  0
  101.8207   84.9926  111.1786 C   0  0  0  0  0  0  0  0  0  0  0  0
  102.5860   85.3082  112.2438 N   0  0  0  0  0  0  0  0  0  0  0  0
  103.5350   84.9368  112.4651 H   0  0  0  0  0  0  0  0  0  0  0  0
 95 96  1  0  0  0
 96 91  1  0  0  0
 91 92  2  0  0  0
 91 93  1  0  0  0
 93 90  1  0  0  0
 90103  1  0  0  0
103104  1  0  0  0
104105  1  0  0  0
105106  2  0  0  0
105107  1  0  0  0
 90 86  1  0  0  0
 86 87  2  0  0  0
 86 88  1  0  0  0
 88 85  1  0  0  0
 85110  1  0  0  0
110111  1  0  0  0
111112  1  0  0  0
112113  2  0  0  0
112114  1  0  0  0
 85 81  1  0  0  0
 81 82  2  0  0  0
 81 83  1  0  0  0
 83 79  1  0  0  0
 79 80  1  0  0  0
 79 75  1  0  0  0
 75 76  2  0  0  0
 75 77  1  0  0  0
 77 74  1  0  0  0
 74117  1  0  0  0
117118  1  0  0  0
 74 70  1  0  0  0
 70 71  2  0  0  0
 70 72  1  0  0  0
 72 69  1  0  0  0
 69120  1  0  0  0
120121  1  0  0  0
121122  2  0  0  0
122123  1  0  0  0
123124  2  0  0  0
124125  1  0  0  0
 69 65  1  0  0  0
 65 66  2  0  0  0
 65 67  1  0  0  0
 67  1  1  0  0  0
  1  2  1  0  0  0
  2  3  2  0  0  0
  3  4  1  0  0  0
  4  5  2  0  0  0
  5  6  1  0  0  0
  5  7  1  0  0  0
  7  8  2  0  0  0
  1 10  1  0  0  0
 10 11  2  0  0  0
 10 12  1  0  0  0
 12 14  1  0  0  0
 14 58  1  0  0  0
 58 59  1  0  0  0
 59 60  1  0  0  0
 60 61  1  0  0  0
 61 62  1  0  0  0
 14 15  1  0  0  0
 15 16  2  0  0  0
 15 17  1  0  0  0
 17 19  1  0  0  0
 19 51  1  0  0  0
 51 52  1  0  0  0
 52 53  1  0  0  0
 53 54  2  0  0  0
 53 55  1  0  0  0
 19 20  1  0  0  0
 20 21  2  0  0  0
 20 22  1  0  0  0
 22 24  1  0  0  0
 24 44  1  0  0  0
 44 45  1  0  0  0
 45 46  2  0  0  0
 46 47  1  0  0  0
 47 48  2  0  0  0
 48 49  1  0  0  0
 24 25  1  0  0  0
 25 26  2  0  0  0
 25 27  1  0  0  0
 27 29  1  0  0  0
 29 41  1  0  0  0
 41 42  1  0  0  0
 29 30  1  0  0  0
 30 31  2  0  0  0
 30 32  1  0  0  0
 32 33  1  0  0  0
 33 34  1  0  0  0
 34 35  1  0  0  0
 35 36  1  0  0  0
 36 37  1  0  0  0
 37 38  1  0  0  0
 37 39  2  0  0  0
 96 99  1  0  0  0
 99100  1  0  0  0
 99101  1  0  0  0
125121  1  0  0  0
  8  2  1  0  0  0
 49 45  1  0  0  0
 36 32  1  0  0  0
 95 97  1  0  0  0
 95 98  1  0  0  0
 93 94  1  0  0  0
107108  1  0  0  0
107109  1  0  0  0
 88 89  1  0  0  0
114115  1  0  0  0
114116  1  0  0  0
 83 84  1  0  0  0
 77 78  1  0  0  0
118119  1  0  0  0
 72 73  1  0  0  0
125126  1  0  0  0
 67 68  1  0  0  0
  6  9  1  0  0  0
 12 13  1  0  0  0
 62 63  1  0  0  0
 62 64  1  0  0  0
 17 18  1  0  0  0
 55 56  1  0  0  0
 55 57  1  0  0  0
 22 23  1  0  0  0
 49 50  1  0  0  0
 27 28  1  0  0  0
 42 43  1  0  0  0
 38 40  1  0  0  0
100102  1  0  0  0
M  END
> <minimizedAffinity>
-7.00864

$$$$



126129  0  0  0  0  0  0  0  0999 V2000
  112.8075  111.7982  106.0975 C   0  0  0  0  0  0  0  0  0  0  0  0
  111.4615  111.8632  105.4137 C   0  0  0  0  0  0  0  0  0  0  0  0
  110.5513  110.7947  105.5046 C   0  0  0  0  0  0  0  0  0  0  0  0
  109.2911  110.8872  104.9093 C   0  0  0  0  0  0  0  0  0  0  0  0
  108.9294  112.0385  104.1984 C   0  0  0  0  0  0  0  0  0  0  0  0
  107.6680  112.1224  103.6101 O   0  0  0  0  0  0  0  0  0  0  0  0
  109.8354  113.1001  104.0892 C   0  0  0  0  0  0  0  0  0  0  0  0
  111.0900  113.0149  104.7019 C   0  0  0  0  0  0  0  0  0  0  0  0
  107.4007  112.9261  103.0537 H   0  0  0  0  0  0  0  0  0  0  0  0
  112.7992  112.6063  107.3687 C   0  0  0  0  0  0  0  0  0  0  0  0
  112.1417  112.2171  108.3695 O   0  0  0  0  0  0  0  0  0  0  0  0
  113.5102  113.8505  107.4268 N   0  0  0  0  0  0  0  0  0  0  0  0
  114.4626  113.8687  106.9943 H   0  0  0  0  0  0  0  0  0  0  0  0
  112.8815  115.1559  107.6876 C   0  0  0  0  0  0  0  0  0  0  0  0
  113.0113  116.0211  106.4564 C   0  0  0  0  0  0  0  0  0  0  0  0
  112.1627  116.9274  106.2170 O   0  0  0  0  0  0  0  0  0  0  0  0
  114.1001  115.7997  105.5494 N   0  0  0  0  0  0  0  0  0  0  0  0
  114.8939  115.2007  105.8729 H   0  0  0  0  0  0  0  0  0  0  0  0
  113.9663  116.0441  104.1087 C   0  0  0  0  0  0  0  0  0  0  0  0
  115.0564  116.9801  103.6449 C   0  0  0  0  0  0  0  0  0  0  0  0
  114.7463  118.0425  103.0437 O   0  0  0  0  0  0  0  0  0  0  0  0
  116.4355  116.6963  103.9444 N   0  0  0  0  0  0  0  0  0  0  0  0
  116.6356  115.8387  104.5121 H   0  0  0  0  0  0  0  0  0  0  0  0
  117.4982  117.6946  103.7391 C   0  0  0  0  0  0  0  0  0  0  0  0
  118.7660  117.0670  103.1958 C   0  0  0  0  0  0  0  0  0  0  0  0
  119.3042  117.5543  102.1646 O   0  0  0  0  0  0  0  0  0  0  0  0
  119.3023  115.8430  103.7339 N   0  0  0  0  0  0  0  0  0  0  0  0
  119.6800  115.1614  103.0337 H   0  0  0  0  0  0  0  0  0  0  0  0
  119.6739  115.6034  105.1405 C   0  0  0  0  0  0  0  0  0  0  0  0
  119.4728  114.1563  105.5306 C   0  0  0  0  0  0  0  0  0  0  0  0
  119.1569  113.3092  104.6588 O   0  0  0  0  0  0  0  0  0  0  0  0
  119.5087  113.7461  106.9043 N   0  0  0  0  0  0  0  0  0  0  0  0
  120.7091  113.2341  107.5421 C   0  0  0  0  0  0  0  0  0  0  0  0
  120.2326  112.5136  108.7947 C   0  0  0  0  0  0  0  0  0  0  0  0
  118.8236  113.0398  109.0594 C   0  0  0  0  0  0  0  0  0  0  0  0
  118.3108  113.5434  107.7091 C   0  0  0  0  0  0  0  0  0  0  0  0
  117.3922  112.5396  107.0683 C   0  0  0  0  0  0  0  0  0  0  0  0
  117.9147  111.3640  106.5486 O   0  0  0  0  0  0  0  0  0  0  0  0
  116.1581  112.7776  106.9743 O   0  0  0  0  0  0  0  0  0  0  0  0
  117.3154  110.6821  106.0998 H   0  0  0  0  0  0  0  0  0  0  0  0
  121.0988  116.1148  105.4354 C   0  0  0  0  0  0  0  0  0  0  0  0
  121.2185  116.9024  107.0773 S   0  0  0  0  0  0  0  0  0  0  0  0
  120.7915  115.7757  107.7953 H   0  0  0  0  0  0  0  0  0  0  0  0
  117.7749  118.4414  105.0619 C   0  0  0  0  0  0  0  0  0  0  0  0
  118.7198  119.6022  104.8858 C   0  0  0  0  0  0  0  0  0  0  0  0
  119.8208  119.8874  105.6606 C   0  0  0  0  0  0  0  0  0  0  0  0
  120.3916  121.0241  105.2170 N   0  0  0  0  0  0  0  0  0  0  0  0
  119.6113  121.4097  104.1847 C   0  0  0  0  0  0  0  0  0  0  0  0
  118.5876  120.5666  103.9580 N   0  0  0  0  0  0  0  0  0  0  0  0
  117.8297  120.6691  103.2470 H   0  0  0  0  0  0  0  0  0  0  0  0
  114.0540  114.7115  103.3349 C   0  0  0  0  0  0  0  0  0  0  0  0
  114.8224  113.6302  104.1137 C   0  0  0  0  0  0  0  0  0  0  0  0
  116.1266  113.2993  103.4423 C   0  0  0  0  0  0  0  0  0  0  0  0
  116.6633  114.1355  102.6674 O   0  0  0  0  0  0  0  0  0  0  0  0
  116.7583  112.0378  103.6693 N   0  0  0  0  0  0  0  0  0  0  0  0
  117.6855  111.8267  103.2372 H   0  0  0  0  0  0  0  0  0  0  0  0
  116.3044  111.3046  104.2569 H   0  0  0  0  0  0  0  0  0  0  0  0
  113.4188  115.8530  108.9634 C   0  0  0  0  0  0  0  0  0  0  0  0
  113.5882  114.8776  110.1409 C   0  0  0  0  0  0  0  0  0  0  0  0
  115.0591  114.5154  110.4145 C   0  0  0  0  0  0  0  0  0  0  0  0
  115.9407  115.6891  110.8903 C   0  0  0  0  0  0  0  0  0  0  0  0
  115.6931  116.0486  112.2887 N   0  0  0  0  0  0  0  0  0  0  0  0
  116.0702  115.2899  112.9052 H   0  0  0  0  0  0  0  0  0  0  0  0
  114.6669  116.1116  112.4496 H   0  0  0  0  0  0  0  0  0  0  0  0
  114.5363  109.9792  106.1984 C   0  0  0  0  0  0  0  0  0  0  0  0
  115.1667  110.2729  105.1479 O   0  0  0  0  0  0  0  0  0  0  0  0
  113.1810  110.4050  106.3611 N   0  0  0  0  0  0  0  0  0  0  0  0
  112.5035  109.7627  106.8343 H   0  0  0  0  0  0  0  0  0  0  0  0
  115.2600  109.3746  107.3658 C   0  0  0  0  0  0  0  0  0  0  0  0
  117.4428  108.0808  107.6012 C   0  0  0  0  0  0  0  0  0  0  0  0
  118.5378  107.9119  106.9897 O   0  0  0  0  0  0  0  0  0  0  0  0
  116.2802  108.4607  106.8452 N   0  0  0  0  0  0  0  0  0  0  0  0
  116.3432  108.3424  105.8110 H   0  0  0  0  0  0  0  0  0  0  0  0
  117.3482  107.7855  109.0832 C   0  0  0  0  0  0  0  0  0  0  0  0
  118.3519  108.4919  111.2996 C   0  0  0  0  0  0  0  0  0  0  0  0
  117.2639  108.2724  111.9003 O   0  0  0  0  0  0  0  0  0  0  0  0
  118.3842  108.4785  109.8629 N   0  0  0  0  0  0  0  0  0  0  0  0
  119.1921  108.9377  109.3898 H   0  0  0  0  0  0  0  0  0  0  0  0
  119.6246  108.7472  112.0718 C   0  0  0  0  0  0  0  0  0  0  0  0
  120.7687  109.0110  111.0935 C   0  0  0  0  0  0  0  0  0  0  0  0
  120.3565  106.3330  112.4744 C   0  0  0  0  0  0  0  0  0  0  0  0
  120.2634  106.0658  111.2457 O   0  0  0  0  0  0  0  0  0  0  0  0
  119.9689  107.6279  112.9657 N   0  0  0  0  0  0  0  0  0  0  0  0
  119.9832  107.7598  113.9993 H   0  0  0  0  0  0  0  0  0  0  0  0
  120.8763  105.2825  113.4247 C   0  0  0  0  0  0  0  0  0  0  0  0
  119.8239  103.6152  115.0211 C   0  0  0  0  0  0  0  0  0  0  0  0
  119.9707  103.5936  116.2750 O   0  0  0  0  0  0  0  0  0  0  0  0
  119.8120  104.8807  114.3502 N   0  0  0  0  0  0  0  0  0  0  0  0
  119.3007  105.6437  114.8381 H   0  0  0  0  0  0  0  0  0  0  0  0
  119.5073  102.3108  114.3084 C   0  0  0  0  0  0  0  0  0  0  0  0
  117.7823  101.1069  115.6838 C   0  0  0  0  0  0  0  0  0  0  0  0
  116.8522  101.0368  114.8339 O   0  0  0  0  0  0  0  0  0  0  0  0
  119.1358  101.2416  115.2378 N   0  0  0  0  0  0  0  0  0  0  0  0
  119.8373  100.5388  115.5547 H   0  0  0  0  0  0  0  0  0  0  0  0
  118.5907  100.6072  117.9369 N   0  0  0  0  0  0  0  0  0  0  0  0
  117.4628  101.1436  117.1634 C   0  0  0  0  0  0  0  0  0  0  0  0
  118.2934  100.5235  118.9374 H   0  0  0  0  0  0  0  0  0  0  0  0
  118.7800   99.6312  117.6152 H   0  0  0  0  0  0  0  0  0  0  0  0
  117.0830  102.5660  117.6316 C   0  0  0  0  0  0  0  0  0  0  0  0
  116.8398  103.3667  116.4982 O   0  0  0  0  0  0  0  0  0  0  0  0
  115.8430  102.5777  118.5369 C   0  0  0  0  0  0  0  0  0  0  0  0
  116.8529  104.3093  116.8042 H   0  0  0  0  0  0  0  0  0  0  0  0
  120.6664  101.8697  113.3978 C   0  0  0  0  0  0  0  0  0  0  0  0
  121.3847  100.5940  113.8730 C   0  0  0  0  0  0  0  0  0  0  0  0
  122.5173  100.8954  114.8218 C   0  0  0  0  0  0  0  0  0  0  0  0
  122.3058  101.1067  116.0445 O   0  0  0  0  0  0  0  0  0  0  0  0
  123.8566  100.9271  114.3321 N   0  0  0  0  0  0  0  0  0  0  0  0
  124.6499  101.1157  114.9809 H   0  0  0  0  0  0  0  0  0  0  0  0
  124.0628  100.7134  113.3284 H   0  0  0  0  0  0  0  0  0  0  0  0
  122.1758  105.6669  114.1939 C   0  0  0  0  0  0  0  0  0  0  0  0
  123.2708  104.5897  114.3408 C   0  0  0  0  0  0  0  0  0  0  0  0
  124.5435  104.8054  113.5544 C   0  0  0  0  0  0  0  0  0  0  0  0
  125.1239  105.9155  113.6534 O   0  0  0  0  0  0  0  0  0  0  0  0
  125.0912  103.8224  112.6696 N   0  0  0  0  0  0  0  0  0  0  0  0
  124.5767  102.9592  112.3987 H   0  0  0  0  0  0  0  0  0  0  0  0
  125.9941  104.0158  112.1750 H   0  0  0  0  0  0  0  0  0  0  0  0
  117.4306  106.2607  109.3042 C   0  0  0  0  0  0  0  0  0  0  0  0
  118.7230  105.7828  109.0262 O   0  0  0  0  0  0  0  0  0  0  0  0
  119.2448  105.8738  109.8694 H   0  0  0  0  0  0  0  0  0  0  0  0
  114.2999  108.6406  108.3201 C   0  0  0  0  0  0  0  0  0  0  0  0
  113.9074  109.5331  109.4634 C   0  0  0  0  0  0  0  0  0  0  0  0
  114.7625  110.3216  110.2112 C   0  0  0  0  0  0  0  0  0  0  0  0
  114.0585  110.9296  111.1884 N   0  0  0  0  0  0  0  0  0  0  0  0
  112.7896  110.4950  111.0078 C   0  0  0  0  0  0  0  0  0  0  0  0
  112.6677  109.6524  109.9613 N   0  0  0  0  0  0  0  0  0  0  0  0
  111.7989  109.1723  109.6418 H   0  0  0  0  0  0  0  0  0  0  0  0
 95 96  1  0  0  0
 96 91  1  0  0  0
 91 92  2  0  0  0
 91 93  1  0  0  0
 93 90  1  0  0  0
 90103  1  0  0  0
103104  1  0  0  0
104105  1  0  0  0
105106  2  0  0  0
105107  1  0  0  0
 90 86  1  0  0  0
 86 87  2  0  0  0
 86 88  1  0  0  0
 88 85  1  0  0  0
 85110  1  0  0  0
110111  1  0  0  0
111112  1  0  0  0
112113  2  0  0  0
112114  1  0  0  0
 85 81  1  0  0  0
 81 82  2  0  0  0
 81 83  1  0  0  0
 83 79  1  0  0  0
 79 80  1  0  0  0
 79 75  1  0  0  0
 75 76  2  0  0  0
 75 77  1  0  0  0
 77 74  1  0  0  0
 74117  1  0  0  0
117118  1  0  0  0
 74 70  1  0  0  0
 70 71  2  0  0  0
 70 72  1  0  0  0
 72 69  1  0  0  0
 69120  1  0  0  0
120121  1  0  0  0
121122  2  0  0  0
122123  1  0  0  0
123124  2  0  0  0
124125  1  0  0  0
 69 65  1  0  0  0
 65 66  2  0  0  0
 65 67  1  0  0  0
 67  1  1  0  0  0
  1  2  1  0  0  0
  2  3  2  0  0  0
  3  4  1  0  0  0
  4  5  2  0  0  0
  5  6  1  0  0  0
  5  7  1  0  0  0
  7  8  2  0  0  0
  1 10  1  0  0  0
 10 11  2  0  0  0
 10 12  1  0  0  0
 12 14  1  0  0  0
 14 58  1  0  0  0
 58 59  1  0  0  0
 59 60  1  0  0  0
 60 61  1  0  0  0
 61 62  1  0  0  0
 14 15  1  0  0  0
 15 16  2  0  0  0
 15 17  1  0  0  0
 17 19  1  0  0  0
 19 51  1  0  0  0
 51 52  1  0  0  0
 52 53  1  0  0  0
 53 54  2  0  0  0
 53 55  1  0  0  0
 19 20  1  0  0  0
 20 21  2  0  0  0
 20 22  1  0  0  0
 22 24  1  0  0  0
 24 44  1  0  0  0
 44 45  1  0  0  0
 45 46  2  0  0  0
 46 47  1  0  0  0
 47 48  2  0  0  0
 48 49  1  0  0  0
 24 25  1  0  0  0
 25 26  2  0  0  0
 25 27  1  0  0  0
 27 29  1  0  0  0
 29 41  1  0  0  0
 41 42  1  0  0  0
 29 30  1  0  0  0
 30 31  2  0  0  0
 30 32  1  0  0  0
 32 33  1  0  0  0
 33 34  1  0  0  0
 34 35  1  0  0  0
 35 36  1  0  0  0
 36 37  1  0  0  0
 37 38  1  0  0  0
 37 39  2  0  0  0
 96 99  1  0  0  0
 99100  1  0  0  0
 99101  1  0  0  0
125121  1  0  0  0
  8  2  1  0  0  0
 49 45  1  0  0  0
 36 32  1  0  0  0
 95 97  1  0  0  0
 95 98  1  0  0  0
 93 94  1  0  0  0
107108  1  0  0  0
107109  1  0  0  0
 88 89  1  0  0  0
114115  1  0  0  0
114116  1  0  0  0
 83 84  1  0  0  0
 77 78  1  0  0  0
118119  1  0  0  0
 72 73  1  0  0  0
125126  1  0  0  0
 67 68  1  0  0  0
  6  9  1  0  0  0
 12 13  1  0  0  0
 62 63  1  0  0  0
 62 64  1  0  0  0
 17 18  1  0  0  0
 55 56  1  0  0  0
 55 57  1  0  0  0
 22 23  1  0  0  0
 49 50  1  0  0  0
 27 28  1  0  0  0
 42 43  1  0  0  0
 38 40  1  0  0  0
100102  1  0  0  0
M  END
> <minimizedAffinity>
-6.99591

$$$$



126129  0  0  0  0  0  0  0  0999 V2000
  103.6422   91.4025  109.1451 C   0  0  0  0  0  0  0  0  0  0  0  0
  104.7721   90.7821  108.3564 C   0  0  0  0  0  0  0  0  0  0  0  0
  104.5394   90.1914  107.1012 C   0  0  0  0  0  0  0  0  0  0  0  0
  105.6002   89.6653  106.3602 C   0  0  0  0  0  0  0  0  0  0  0  0
  106.9042   89.7032  106.8699 C   0  0  0  0  0  0  0  0  0  0  0  0
  107.9568   89.1779  106.1213 O   0  0  0  0  0  0  0  0  0  0  0  0
  107.1422   90.2746  108.1256 C   0  0  0  0  0  0  0  0  0  0  0  0
  106.0826   90.8188  108.8588 C   0  0  0  0  0  0  0  0  0  0  0  0
  108.9011   89.1539  106.4882 H   0  0  0  0  0  0  0  0  0  0  0  0
  103.1333   90.4450  110.1907 C   0  0  0  0  0  0  0  0  0  0  0  0
  103.9111   89.9811  111.0656 O   0  0  0  0  0  0  0  0  0  0  0  0
  101.7626   90.0240  110.1647 N   0  0  0  0  0  0  0  0  0  0  0  0
  101.0471   90.7629  109.9738 H   0  0  0  0  0  0  0  0  0  0  0  0
  101.3247   88.6277  110.0038 C   0  0  0  0  0  0  0  0  0  0  0  0
  101.2331   87.9791  111.3648 C   0  0  0  0  0  0  0  0  0  0  0  0
  101.8908   86.9301  111.6210 O   0  0  0  0  0  0  0  0  0  0  0  0
  100.3821   88.5550  112.3656 N   0  0  0  0  0  0  0  0  0  0  0  0
  100.0225   89.5238  112.2052 H   0  0  0  0  0  0  0  0  0  0  0  0
   99.7060   87.7287  113.3722 C   0  0  0  0  0  0  0  0  0  0  0  0
   98.5862   88.5144  114.0111 C   0  0  0  0  0  0  0  0  0  0  0  0
   97.7754   87.9275  114.7756 O   0  0  0  0  0  0  0  0  0  0  0  0
   98.4831   89.9351  113.8032 N   0  0  0  0  0  0  0  0  0  0  0  0
   99.2257   90.3888  113.2198 H   0  0  0  0  0  0  0  0  0  0  0  0
   97.5725   90.7745  114.5997 C   0  0  0  0  0  0  0  0  0  0  0  0
   97.2702   92.0906  113.9120 C   0  0  0  0  0  0  0  0  0  0  0  0
   98.2152   92.8856  113.6560 O   0  0  0  0  0  0  0  0  0  0  0  0
   95.9206   92.5306  113.6668 N   0  0  0  0  0  0  0  0  0  0  0  0
   95.7346   93.5492  113.8264 H   0  0  0  0  0  0  0  0  0  0  0  0
   94.8909   91.7919  112.9131 C   0  0  0  0  0  0  0  0  0  0  0  0
   95.4851   91.0571  111.7326 C   0  0  0  0  0  0  0  0  0  0  0  0
   95.8078   89.8483  111.8434 O   0  0  0  0  0  0  0  0  0  0  0  0
   95.8111   91.7454  110.5174 N   0  0  0  0  0  0  0  0  0  0  0  0
   94.9049   91.8145  109.3843 C   0  0  0  0  0  0  0  0  0  0  0  0
   95.7663   92.2094  108.1937 C   0  0  0  0  0  0  0  0  0  0  0  0
   97.0442   92.7966  108.7891 C   0  0  0  0  0  0  0  0  0  0  0  0
   97.1570   92.2003  110.1933 C   0  0  0  0  0  0  0  0  0  0  0  0
   98.1354   91.0582  110.2215 C   0  0  0  0  0  0  0  0  0  0  0  0
   99.1362   91.0348  111.1822 O   0  0  0  0  0  0  0  0  0  0  0  0
   98.0677   90.1427  109.3580 O   0  0  0  0  0  0  0  0  0  0  0  0
   99.8139   90.2828  111.2092 H   0  0  0  0  0  0  0  0  0  0  0  0
   94.0699   90.8752  113.8428 C   0  0  0  0  0  0  0  0  0  0  0  0
   93.3054   91.8004  115.2175 S   0  0  0  0  0  0  0  0  0  0  0  0
   92.5814   92.6792  114.3983 H   0  0  0  0  0  0  0  0  0  0  0  0
   98.1730   91.0098  116.0025 C   0  0  0  0  0  0  0  0  0  0  0  0
   97.1451   91.4711  117.0035 C   0  0  0  0  0  0  0  0  0  0  0  0
   96.1248   90.7173  117.5370 C   0  0  0  0  0  0  0  0  0  0  0  0
   95.3931   91.4865  118.3661 N   0  0  0  0  0  0  0  0  0  0  0  0
   95.9839   92.6992  118.3061 C   0  0  0  0  0  0  0  0  0  0  0  0
   97.0513   92.7223  117.4873 N   0  0  0  0  0  0  0  0  0  0  0  0
   97.6447   93.5467  117.2452 H   0  0  0  0  0  0  0  0  0  0  0  0
   99.1426   86.4501  112.7165 C   0  0  0  0  0  0  0  0  0  0  0  0
   98.0175   86.7525  111.7121 C   0  0  0  0  0  0  0  0  0  0  0  0
   96.8183   85.8796  111.9592 C   0  0  0  0  0  0  0  0  0  0  0  0
   96.2752   85.2726  110.9978 O   0  0  0  0  0  0  0  0  0  0  0  0
   96.2831   85.7404  113.2769 N   0  0  0  0  0  0  0  0  0  0  0  0
   95.4776   85.0996  113.4542 H   0  0  0  0  0  0  0  0  0  0  0  0
   96.6757   86.2803  114.0789 H   0  0  0  0  0  0  0  0  0  0  0  0
  102.2036   87.8175  109.0172 C   0  0  0  0  0  0  0  0  0  0  0  0
  101.3886   87.2166  107.8590 C   0  0  0  0  0  0  0  0  0  0  0  0
   99.8683   87.3112  108.0813 C   0  0  0  0  0  0  0  0  0  0  0  0
   99.0142   87.1783  106.8030 C   0  0  0  0  0  0  0  0  0  0  0  0
   98.2743   88.4033  106.4901 N   0  0  0  0  0  0  0  0  0  0  0  0
   98.9517   89.1351  106.1685 H   0  0  0  0  0  0  0  0  0  0  0  0
   97.8107   88.7534  107.3536 H   0  0  0  0  0  0  0  0  0  0  0  0
  103.1089   93.6412  110.1507 C   0  0  0  0  0  0  0  0  0  0  0  0
  102.1923   93.9807  109.3557 O   0  0  0  0  0  0  0  0  0  0  0  0
  104.0748   92.6650  109.7524 N   0  0  0  0  0  0  0  0  0  0  0  0
  105.0688   92.7849  110.0574 H   0  0  0  0  0  0  0  0  0  0  0  0
  103.0687   94.0916  111.5816 C   0  0  0  0  0  0  0  0  0  0  0  0
  102.6516   96.5766  111.2017 C   0  0  0  0  0  0  0  0  0  0  0  0
  103.1834   97.5695  110.6249 O   0  0  0  0  0  0  0  0  0  0  0  0
  103.4940   95.4929  111.6299 N   0  0  0  0  0  0  0  0  0  0  0  0
  104.5180   95.6884  111.6599 H   0  0  0  0  0  0  0  0  0  0  0  0
  101.1715   96.5880  111.5207 C   0  0  0  0  0  0  0  0  0  0  0  0
   99.3140   96.7348  109.8040 C   0  0  0  0  0  0  0  0  0  0  0  0
   99.2761   95.4786  109.6884 O   0  0  0  0  0  0  0  0  0  0  0  0
  100.3888   97.3478  110.5351 N   0  0  0  0  0  0  0  0  0  0  0  0
  100.5674   98.3631  110.3780 H   0  0  0  0  0  0  0  0  0  0  0  0
   98.2325   97.6004  109.2022 C   0  0  0  0  0  0  0  0  0  0  0  0
   98.5672   99.0722  109.4413 C   0  0  0  0  0  0  0  0  0  0  0  0
   96.6034   97.3438  111.1531 C   0  0  0  0  0  0  0  0  0  0  0  0
   97.5297   97.5153  111.9912 O   0  0  0  0  0  0  0  0  0  0  0  0
   96.8998   97.2878  109.7470 N   0  0  0  0  0  0  0  0  0  0  0  0
   96.1080   97.0551  109.1107 H   0  0  0  0  0  0  0  0  0  0  0  0
   95.1822   97.1963  111.6381 C   0  0  0  0  0  0  0  0  0  0  0  0
   93.7212   98.1030  113.5034 C   0  0  0  0  0  0  0  0  0  0  0  0
   93.5070   97.5458  114.6161 O   0  0  0  0  0  0  0  0  0  0  0  0
   95.0047   97.9426  112.8880 N   0  0  0  0  0  0  0  0  0  0  0  0
   95.8204   97.9815  113.5320 H   0  0  0  0  0  0  0  0  0  0  0  0
   92.6639   99.0450  112.9519 C   0  0  0  0  0  0  0  0  0  0  0  0
   92.9936  100.4667  110.9057 C   0  0  0  0  0  0  0  0  0  0  0  0
   91.8030  100.5095  110.4896 O   0  0  0  0  0  0  0  0  0  0  0  0
   93.2470  100.2153  112.2920 N   0  0  0  0  0  0  0  0  0  0  0  0
   93.8175  100.9040  112.8272 H   0  0  0  0  0  0  0  0  0  0  0  0
   93.6700  101.1127  108.6463 N   0  0  0  0  0  0  0  0  0  0  0  0
   94.1470  100.5859  109.9321 C   0  0  0  0  0  0  0  0  0  0  0  0
   94.4568  101.0613  107.9574 H   0  0  0  0  0  0  0  0  0  0  0  0
   92.9299  100.4729  108.2791 H   0  0  0  0  0  0  0  0  0  0  0  0
   95.2930  101.4488  110.5055 C   0  0  0  0  0  0  0  0  0  0  0  0
   95.9665  100.7078  111.4966 O   0  0  0  0  0  0  0  0  0  0  0  0
   96.2966  101.8871  109.4296 C   0  0  0  0  0  0  0  0  0  0  0  0
   96.5123  101.3520  112.0156 H   0  0  0  0  0  0  0  0  0  0  0  0
   91.6633   99.4696  114.0409 C   0  0  0  0  0  0  0  0  0  0  0  0
   91.8380  100.9222  114.5191 C   0  0  0  0  0  0  0  0  0  0  0  0
   90.6675  101.7937  114.1391 C   0  0  0  0  0  0  0  0  0  0  0  0
   89.7457  102.0425  114.9593 O   0  0  0  0  0  0  0  0  0  0  0  0
   90.6076  102.3618  112.8322 N   0  0  0  0  0  0  0  0  0  0  0  0
   89.8137  102.9810  112.5633 H   0  0  0  0  0  0  0  0  0  0  0  0
   91.3823  102.2044  112.1461 H   0  0  0  0  0  0  0  0  0  0  0  0
   94.6784   95.7288  111.7823 C   0  0  0  0  0  0  0  0  0  0  0  0
   93.5332   95.2667  110.8570 C   0  0  0  0  0  0  0  0  0  0  0  0
   93.4987   95.8664  109.4700 C   0  0  0  0  0  0  0  0  0  0  0  0
   92.6785   96.7905  109.2408 O   0  0  0  0  0  0  0  0  0  0  0  0
   94.3230   95.4002  108.3965 N   0  0  0  0  0  0  0  0  0  0  0  0
   94.8899   94.5296  108.4587 H   0  0  0  0  0  0  0  0  0  0  0  0
   94.2786   95.8761  107.4644 H   0  0  0  0  0  0  0  0  0  0  0  0
  100.9612   97.1589  112.9385 C   0  0  0  0  0  0  0  0  0  0  0  0
  100.1208   98.2853  112.9061 O   0  0  0  0  0  0  0  0  0  0  0  0
   99.1878   97.9429  112.9694 H   0  0  0  0  0  0  0  0  0  0  0  0
  103.9567   93.2162  112.4852 C   0  0  0  0  0  0  0  0  0  0  0  0
  103.1126   92.3131  113.3393 C   0  0  0  0  0  0  0  0  0  0  0  0
  101.7613   92.0685  113.1773 C   0  0  0  0  0  0  0  0  0  0  0  0
  101.3388   91.2583  114.1698 N   0  0  0  0  0  0  0  0  0  0  0  0
  102.4479   91.0292  114.9108 C   0  0  0  0  0  0  0  0  0  0  0  0
  103.5417   91.6507  114.4238 N   0  0  0  0  0  0  0  0  0  0  0  0
  104.5008   91.6428  114.8332 H   0  0  0  0  0  0  0  0  0  0  0  0
 95 96  1  0  0  0
 96 91  1  0  0  0
 91 92  2  0  0  0
 91 93  1  0  0  0
 93 90  1  0  0  0
 90103  1  0  0  0
103104  1  0  0  0
104105  1  0  0  0
105106  2  0  0  0
105107  1  0  0  0
 90 86  1  0  0  0
 86 87  2  0  0  0
 86 88  1  0  0  0
 88 85  1  0  0  0
 85110  1  0  0  0
110111  1  0  0  0
111112  1  0  0  0
112113  2  0  0  0
112114  1  0  0  0
 85 81  1  0  0  0
 81 82  2  0  0  0
 81 83  1  0  0  0
 83 79  1  0  0  0
 79 80  1  0  0  0
 79 75  1  0  0  0
 75 76  2  0  0  0
 75 77  1  0  0  0
 77 74  1  0  0  0
 74117  1  0  0  0
117118  1  0  0  0
 74 70  1  0  0  0
 70 71  2  0  0  0
 70 72  1  0  0  0
 72 69  1  0  0  0
 69120  1  0  0  0
120121  1  0  0  0
121122  2  0  0  0
122123  1  0  0  0
123124  2  0  0  0
124125  1  0  0  0
 69 65  1  0  0  0
 65 66  2  0  0  0
 65 67  1  0  0  0
 67  1  1  0  0  0
  1  2  1  0  0  0
  2  3  2  0  0  0
  3  4  1  0  0  0
  4  5  2  0  0  0
  5  6  1  0  0  0
  5  7  1  0  0  0
  7  8  2  0  0  0
  1 10  1  0  0  0
 10 11  2  0  0  0
 10 12  1  0  0  0
 12 14  1  0  0  0
 14 58  1  0  0  0
 58 59  1  0  0  0
 59 60  1  0  0  0
 60 61  1  0  0  0
 61 62  1  0  0  0
 14 15  1  0  0  0
 15 16  2  0  0  0
 15 17  1  0  0  0
 17 19  1  0  0  0
 19 51  1  0  0  0
 51 52  1  0  0  0
 52 53  1  0  0  0
 53 54  2  0  0  0
 53 55  1  0  0  0
 19 20  1  0  0  0
 20 21  2  0  0  0
 20 22  1  0  0  0
 22 24  1  0  0  0
 24 44  1  0  0  0
 44 45  1  0  0  0
 45 46  2  0  0  0
 46 47  1  0  0  0
 47 48  2  0  0  0
 48 49  1  0  0  0
 24 25  1  0  0  0
 25 26  2  0  0  0
 25 27  1  0  0  0
 27 29  1  0  0  0
 29 41  1  0  0  0
 41 42  1  0  0  0
 29 30  1  0  0  0
 30 31  2  0  0  0
 30 32  1  0  0  0
 32 33  1  0  0  0
 33 34  1  0  0  0
 34 35  1  0  0  0
 35 36  1  0  0  0
 36 37  1  0  0  0
 37 38  1  0  0  0
 37 39  2  0  0  0
 96 99  1  0  0  0
 99100  1  0  0  0
 99101  1  0  0  0
125121  1  0  0  0
  8  2  1  0  0  0
 49 45  1  0  0  0
 36 32  1  0  0  0
 95 97  1  0  0  0
 95 98  1  0  0  0
 93 94  1  0  0  0
107108  1  0  0  0
107109  1  0  0  0
 88 89  1  0  0  0
114115  1  0  0  0
114116  1  0  0  0
 83 84  1  0  0  0
 77 78  1  0  0  0
118119  1  0  0  0
 72 73  1  0  0  0
125126  1  0  0  0
 67 68  1  0  0  0
  6  9  1  0  0  0
 12 13  1  0  0  0
 62 63  1  0  0  0
 62 64  1  0  0  0
 17 18  1  0  0  0
 55 56  1  0  0  0
 55 57  1  0  0  0
 22 23  1  0  0  0
 49 50  1  0  0  0
 27 28  1  0  0  0
 42 43  1  0  0  0
 38 40  1  0  0  0
100102  1  0  0  0
M  END
> <minimizedAffinity>
-6.90795

$$$$



126129  0  0  0  0  0  0  0  0999 V2000
  112.9937   88.2438   87.2066 C   0  0  0  0  0  0  0  0  0  0  0  0
  112.8396   88.3207   88.7079 C   0  0  0  0  0  0  0  0  0  0  0  0
  113.3760   87.3236   89.5425 C   0  0  0  0  0  0  0  0  0  0  0  0
  113.2696   87.4316   90.9311 C   0  0  0  0  0  0  0  0  0  0  0  0
  112.6093   88.5253   91.5052 C   0  0  0  0  0  0  0  0  0  0  0  0
  112.5108   88.6255   92.8924 O   0  0  0  0  0  0  0  0  0  0  0  0
  112.0583   89.5140   90.6813 C   0  0  0  0  0  0  0  0  0  0  0  0
  112.1820   89.4153   89.2915 C   0  0  0  0  0  0  0  0  0  0  0  0
  111.9996   89.3838   93.3290 H   0  0  0  0  0  0  0  0  0  0  0  0
  114.3481   87.6975   86.8371 C   0  0  0  0  0  0  0  0  0  0  0  0
  114.4964   86.4728   86.5850 O   0  0  0  0  0  0  0  0  0  0  0  0
  115.4862   88.5698   86.8138 N   0  0  0  0  0  0  0  0  0  0  0  0
  115.3476   89.5125   86.3819 H   0  0  0  0  0  0  0  0  0  0  0  0
  116.6782   88.4039   87.6617 C   0  0  0  0  0  0  0  0  0  0  0  0
  116.9303   86.9302   87.8763 C   0  0  0  0  0  0  0  0  0  0  0  0
  116.6924   86.3953   88.9969 O   0  0  0  0  0  0  0  0  0  0  0  0
  117.4555   86.1398   86.8007 N   0  0  0  0  0  0  0  0  0  0  0  0
  117.4411   86.5494   85.8386 H   0  0  0  0  0  0  0  0  0  0  0  0
  118.3342   84.9904   87.0453 C   0  0  0  0  0  0  0  0  0  0  0  0
  117.5056   83.7401   87.2171 C   0  0  0  0  0  0  0  0  0  0  0  0
  117.9399   82.8035   87.9386 O   0  0  0  0  0  0  0  0  0  0  0  0
  116.2008   83.6435   86.6169 N   0  0  0  0  0  0  0  0  0  0  0  0
  115.8536   84.4792   86.0889 H   0  0  0  0  0  0  0  0  0  0  0  0
  115.2624   82.5630   86.9635 C   0  0  0  0  0  0  0  0  0  0  0  0
  114.5144   82.0526   85.7485 C   0  0  0  0  0  0  0  0  0  0  0  0
  114.1188   82.8733   84.8763 O   0  0  0  0  0  0  0  0  0  0  0  0
  114.1134   80.6747   85.6229 N   0  0  0  0  0  0  0  0  0  0  0  0
  113.1608   80.5096   85.2195 H   0  0  0  0  0  0  0  0  0  0  0  0
  115.0061   79.5027   85.6830 C   0  0  0  0  0  0  0  0  0  0  0  0
  116.2649   79.7197   84.8737 C   0  0  0  0  0  0  0  0  0  0  0  0
  117.3214   80.0896   85.4432 O   0  0  0  0  0  0  0  0  0  0  0  0
  116.2502   79.6369   83.4420 N   0  0  0  0  0  0  0  0  0  0  0  0
  116.5897   78.4230   82.7200 C   0  0  0  0  0  0  0  0  0  0  0  0
  116.8901   78.8639   81.2949 C   0  0  0  0  0  0  0  0  0  0  0  0
  116.2624   80.2489   81.1534 C   0  0  0  0  0  0  0  0  0  0  0  0
  116.1652   80.8051   82.5751 C   0  0  0  0  0  0  0  0  0  0  0  0
  117.2828   81.7711   82.8580 C   0  0  0  0  0  0  0  0  0  0  0  0
  117.0584   82.8550   83.6947 O   0  0  0  0  0  0  0  0  0  0  0  0
  118.4089   81.6163   82.3137 O   0  0  0  0  0  0  0  0  0  0  0  0
  117.7931   83.5252   83.8862 H   0  0  0  0  0  0  0  0  0  0  0  0
  115.2909   79.0933   87.1425 C   0  0  0  0  0  0  0  0  0  0  0  0
  113.7645   78.9985   88.1384 S   0  0  0  0  0  0  0  0  0  0  0  0
  113.1365   78.0428   87.3262 H   0  0  0  0  0  0  0  0  0  0  0  0
  114.2811   83.0531   88.0503 C   0  0  0  0  0  0  0  0  0  0  0  0
  114.7837   82.7901   89.4465 C   0  0  0  0  0  0  0  0  0  0  0  0
  114.5509   83.5639   90.5606 C   0  0  0  0  0  0  0  0  0  0  0  0
  115.1946   83.0267   91.6149 N   0  0  0  0  0  0  0  0  0  0  0  0
  115.8158   81.9396   91.1093 C   0  0  0  0  0  0  0  0  0  0  0  0
  115.5855   81.7682   89.7949 N   0  0  0  0  0  0  0  0  0  0  0  0
  115.9844   81.0294   89.1741 H   0  0  0  0  0  0  0  0  0  0  0  0
  119.3146   84.8128   85.8665 C   0  0  0  0  0  0  0  0  0  0  0  0
  120.7816   84.7599   86.3261 C   0  0  0  0  0  0  0  0  0  0  0  0
  121.1781   83.3642   86.7211 C   0  0  0  0  0  0  0  0  0  0  0  0
  120.9904   82.4086   85.9217 O   0  0  0  0  0  0  0  0  0  0  0  0
  121.7584   83.1115   88.0024 N   0  0  0  0  0  0  0  0  0  0  0  0
  122.0736   82.1492   88.2583 H   0  0  0  0  0  0  0  0  0  0  0  0
  121.8672   83.8746   88.7058 H   0  0  0  0  0  0  0  0  0  0  0  0
  116.6004   89.1937   88.9931 C   0  0  0  0  0  0  0  0  0  0  0  0
  117.5865   90.3736   89.0367 C   0  0  0  0  0  0  0  0  0  0  0  0
  118.9173   90.0197   89.7249 C   0  0  0  0  0  0  0  0  0  0  0  0
  119.3101   90.9441   90.8964 C   0  0  0  0  0  0  0  0  0  0  0  0
  118.2383   91.8723   91.2652 N   0  0  0  0  0  0  0  0  0  0  0  0
  117.4661   91.3327   91.7239 H   0  0  0  0  0  0  0  0  0  0  0  0
  117.8542   92.3116   90.4035 H   0  0  0  0  0  0  0  0  0  0  0  0
  110.8482   88.0585   85.9145 C   0  0  0  0  0  0  0  0  0  0  0  0
  110.2475   89.0424   86.4230 O   0  0  0  0  0  0  0  0  0  0  0  0
  111.9210   87.4325   86.6228 N   0  0  0  0  0  0  0  0  0  0  0  0
  112.0231   86.3923   86.5675 H   0  0  0  0  0  0  0  0  0  0  0  0
  110.5906   87.6759   84.4864 C   0  0  0  0  0  0  0  0  0  0  0  0
  108.5716   86.1243   84.3872 C   0  0  0  0  0  0  0  0  0  0  0  0
  107.5910   85.8600   83.6323 O   0  0  0  0  0  0  0  0  0  0  0  0
  109.1532   87.4380   84.3310 N   0  0  0  0  0  0  0  0  0  0  0  0
  108.5890   88.1723   83.8513 H   0  0  0  0  0  0  0  0  0  0  0  0
  109.0476   85.1024   85.3981 C   0  0  0  0  0  0  0  0  0  0  0  0
  110.1821   82.8384   85.3189 C   0  0  0  0  0  0  0  0  0  0  0  0
  111.1684   83.2725   85.9760 O   0  0  0  0  0  0  0  0  0  0  0  0
  109.2044   83.7626   84.8135 N   0  0  0  0  0  0  0  0  0  0  0  0
  108.5768   83.4364   84.0472 H   0  0  0  0  0  0  0  0  0  0  0  0
  110.0051   81.3583   85.0757 C   0  0  0  0  0  0  0  0  0  0  0  0
  109.8543   80.6375   86.4148 C   0  0  0  0  0  0  0  0  0  0  0  0
  110.9436   80.1346   83.0392 C   0  0  0  0  0  0  0  0  0  0  0  0
  109.7833   79.9023   82.6037 O   0  0  0  0  0  0  0  0  0  0  0  0
  111.1242   80.7806   84.3113 N   0  0  0  0  0  0  0  0  0  0  0  0
  112.1030   80.8649   84.6586 H   0  0  0  0  0  0  0  0  0  0  0  0
  112.1404   79.7275   82.2153 C   0  0  0  0  0  0  0  0  0  0  0  0
  112.6561   80.9922   80.0775 C   0  0  0  0  0  0  0  0  0  0  0  0
  113.4139   80.5994   79.1469 O   0  0  0  0  0  0  0  0  0  0  0  0
  111.8912   80.0204   80.8002 N   0  0  0  0  0  0  0  0  0  0  0  0
  111.4786   79.2564   80.2277 H   0  0  0  0  0  0  0  0  0  0  0  0
  112.4728   82.4876   80.2770 C   0  0  0  0  0  0  0  0  0  0  0  0
  109.9729   82.7278   80.1775 C   0  0  0  0  0  0  0  0  0  0  0  0
  109.7444   83.0139   81.3851 O   0  0  0  0  0  0  0  0  0  0  0  0
  111.2650   82.9951   79.6223 N   0  0  0  0  0  0  0  0  0  0  0  0
  111.3275   83.5921   78.7701 H   0  0  0  0  0  0  0  0  0  0  0  0
  108.5633   80.7403   79.9719 N   0  0  0  0  0  0  0  0  0  0  0  0
  108.9212   82.0215   79.3484 C   0  0  0  0  0  0  0  0  0  0  0  0
  107.9368   80.2183   79.3151 H   0  0  0  0  0  0  0  0  0  0  0  0
  109.4281   80.1603   80.0594 H   0  0  0  0  0  0  0  0  0  0  0  0
  107.6760   82.9087   79.1270 C   0  0  0  0  0  0  0  0  0  0  0  0
  108.0011   83.9248   78.2066 O   0  0  0  0  0  0  0  0  0  0  0  0
  106.4715   82.1146   78.6020 C   0  0  0  0  0  0  0  0  0  0  0  0
  107.2914   84.6131   78.2761 H   0  0  0  0  0  0  0  0  0  0  0  0
  113.7153   83.2737   79.8240 C   0  0  0  0  0  0  0  0  0  0  0  0
  114.6404   83.7010   80.9775 C   0  0  0  0  0  0  0  0  0  0  0  0
  115.8668   84.4288   80.4872 C   0  0  0  0  0  0  0  0  0  0  0  0
  116.1450   84.4862   79.2609 O   0  0  0  0  0  0  0  0  0  0  0  0
  116.7218   85.0790   81.4255 N   0  0  0  0  0  0  0  0  0  0  0  0
  117.5621   85.6011   81.0980 H   0  0  0  0  0  0  0  0  0  0  0  0
  116.4897   85.0816   82.4461 H   0  0  0  0  0  0  0  0  0  0  0  0
  112.6118   78.2552   82.4109 C   0  0  0  0  0  0  0  0  0  0  0  0
  113.2483   77.5366   81.2028 C   0  0  0  0  0  0  0  0  0  0  0  0
  112.3415   76.6368   80.3947 C   0  0  0  0  0  0  0  0  0  0  0  0
  111.4468   77.1696   79.6913 O   0  0  0  0  0  0  0  0  0  0  0  0
  112.4257   75.2082   80.4295 N   0  0  0  0  0  0  0  0  0  0  0  0
  113.0133   74.6952   81.1184 H   0  0  0  0  0  0  0  0  0  0  0  0
  111.7913   74.6366   79.8229 H   0  0  0  0  0  0  0  0  0  0  0  0
  108.0634   85.0653   86.5857 C   0  0  0  0  0  0  0  0  0  0  0  0
  107.8480   86.3561   87.0992 O   0  0  0  0  0  0  0  0  0  0  0  0
  107.1021   86.7494   86.5696 H   0  0  0  0  0  0  0  0  0  0  0  0
  111.4015   86.4356   84.0681 C   0  0  0  0  0  0  0  0  0  0  0  0
  111.8805   86.5715   82.6505 C   0  0  0  0  0  0  0  0  0  0  0  0
  111.3669   85.9092   81.5507 C   0  0  0  0  0  0  0  0  0  0  0  0
  112.0930   86.2362   80.4617 N   0  0  0  0  0  0  0  0  0  0  0  0
  113.0309   87.0928   80.9286 C   0  0  0  0  0  0  0  0  0  0  0  0
  112.9195   87.3212   82.2536 N   0  0  0  0  0  0  0  0  0  0  0  0
  113.5382   87.9222   82.8396 H   0  0  0  0  0  0  0  0  0  0  0  0
 95 96  1  0  0  0
 96 91  1  0  0  0
 91 92  2  0  0  0
 91 93  1  0  0  0
 93 90  1  0  0  0
 90103  1  0  0  0
103104  1  0  0  0
104105  1  0  0  0
105106  2  0  0  0
105107  1  0  0  0
 90 86  1  0  0  0
 86 87  2  0  0  0
 86 88  1  0  0  0
 88 85  1  0  0  0
 85110  1  0  0  0
110111  1  0  0  0
111112  1  0  0  0
112113  2  0  0  0
112114  1  0  0  0
 85 81  1  0  0  0
 81 82  2  0  0  0
 81 83  1  0  0  0
 83 79  1  0  0  0
 79 80  1  0  0  0
 79 75  1  0  0  0
 75 76  2  0  0  0
 75 77  1  0  0  0
 77 74  1  0  0  0
 74117  1  0  0  0
117118  1  0  0  0
 74 70  1  0  0  0
 70 71  2  0  0  0
 70 72  1  0  0  0
 72 69  1  0  0  0
 69120  1  0  0  0
120121  1  0  0  0
121122  2  0  0  0
122123  1  0  0  0
123124  2  0  0  0
124125  1  0  0  0
 69 65  1  0  0  0
 65 66  2  0  0  0
 65 67  1  0  0  0
 67  1  1  0  0  0
  1  2  1  0  0  0
  2  3  2  0  0  0
  3  4  1  0  0  0
  4  5  2  0  0  0
  5  6  1  0  0  0
  5  7  1  0  0  0
  7  8  2  0  0  0
  1 10  1  0  0  0
 10 11  2  0  0  0
 10 12  1  0  0  0
 12 14  1  0  0  0
 14 58  1  0  0  0
 58 59  1  0  0  0
 59 60  1  0  0  0
 60 61  1  0  0  0
 61 62  1  0  0  0
 14 15  1  0  0  0
 15 16  2  0  0  0
 15 17  1  0  0  0
 17 19  1  0  0  0
 19 51  1  0  0  0
 51 52  1  0  0  0
 52 53  1  0  0  0
 53 54  2  0  0  0
 53 55  1  0  0  0
 19 20  1  0  0  0
 20 21  2  0  0  0
 20 22  1  0  0  0
 22 24  1  0  0  0
 24 44  1  0  0  0
 44 45  1  0  0  0
 45 46  2  0  0  0
 46 47  1  0  0  0
 47 48  2  0  0  0
 48 49  1  0  0  0
 24 25  1  0  0  0
 25 26  2  0  0  0
 25 27  1  0  0  0
 27 29  1  0  0  0
 29 41  1  0  0  0
 41 42  1  0  0  0
 29 30  1  0  0  0
 30 31  2  0  0  0
 30 32  1  0  0  0
 32 33  1  0  0  0
 33 34  1  0  0  0
 34 35  1  0  0  0
 35 36  1  0  0  0
 36 37  1  0  0  0
 37 38  1  0  0  0
 37 39  2  0  0  0
 96 99  1  0  0  0
 99100  1  0  0  0
 99101  1  0  0  0
125121  1  0  0  0
  8  2  1  0  0  0
 49 45  1  0  0  0
 36 32  1  0  0  0
 95 97  1  0  0  0
 95 98  1  0  0  0
 93 94  1  0  0  0
107108  1  0  0  0
107109  1  0  0  0
 88 89  1  0  0  0
114115  1  0  0  0
114116  1  0  0  0
 83 84  1  0  0  0
 77 78  1  0  0  0
118119  1  0  0  0
 72 73  1  0  0  0
125126  1  0  0  0
 67 68  1  0  0  0
  6  9  1  0  0  0
 12 13  1  0  0  0
 62 63  1  0  0  0
 62 64  1  0  0  0
 17 18  1  0  0  0
 55 56  1  0  0  0
 55 57  1  0  0  0
 22 23  1  0  0  0
 49 50  1  0  0  0
 27 28  1  0  0  0
 42 43  1  0  0  0
 38 40  1  0  0  0
100102  1  0  0  0
M  END
> <minimizedAffinity>
-6.90012

$$$$



126129  0  0  0  0  0  0  0  0999 V2000
  112.4707   86.9125   83.6711 C   0  0  0  0  0  0  0  0  0  0  0  0
  113.2240   86.3412   82.4922 C   0  0  0  0  0  0  0  0  0  0  0  0
  114.3018   85.4575   82.6816 C   0  0  0  0  0  0  0  0  0  0  0  0
  114.9583   84.8978   81.5829 C   0  0  0  0  0  0  0  0  0  0  0  0
  114.5617   85.2276   80.2808 C   0  0  0  0  0  0  0  0  0  0  0  0
  115.2214   84.6614   79.1907 O   0  0  0  0  0  0  0  0  0  0  0  0
  113.5004   86.1190   80.0833 C   0  0  0  0  0  0  0  0  0  0  0  0
  112.8307   86.6642   81.1837 C   0  0  0  0  0  0  0  0  0  0  0  0
  114.9817   84.9190   78.2404 H   0  0  0  0  0  0  0  0  0  0  0  0
  111.7262   85.8276   84.4045 C   0  0  0  0  0  0  0  0  0  0  0  0
  112.2026   85.3233   85.4552 O   0  0  0  0  0  0  0  0  0  0  0  0
  110.4862   85.3343   83.8795 N   0  0  0  0  0  0  0  0  0  0  0  0
  109.8145   86.0468   83.5113 H   0  0  0  0  0  0  0  0  0  0  0  0
  110.2515   83.9386   83.4742 C   0  0  0  0  0  0  0  0  0  0  0  0
  109.3093   83.2898   84.4605 C   0  0  0  0  0  0  0  0  0  0  0  0
  108.5964   82.3049   84.1138 O   0  0  0  0  0  0  0  0  0  0  0  0
  109.2180   83.8076   85.7951 N   0  0  0  0  0  0  0  0  0  0  0  0
  109.9596   84.4716   86.1153 H   0  0  0  0  0  0  0  0  0  0  0  0
  107.9667   83.7538   86.5596 C   0  0  0  0  0  0  0  0  0  0  0  0
  108.1015   82.7657   87.6932 C   0  0  0  0  0  0  0  0  0  0  0  0
  107.2776   82.7989   88.6452 O   0  0  0  0  0  0  0  0  0  0  0  0
  109.1214   81.7505   87.6562 N   0  0  0  0  0  0  0  0  0  0  0  0
  109.7340   81.7178   86.8069 H   0  0  0  0  0  0  0  0  0  0  0  0
  109.1302   80.6211   88.6010 C   0  0  0  0  0  0  0  0  0  0  0  0
  110.0195   80.8922   89.7977 C   0  0  0  0  0  0  0  0  0  0  0  0
  111.1960   81.3070   89.6122 O   0  0  0  0  0  0  0  0  0  0  0  0
  109.6157   80.5573   91.1394 N   0  0  0  0  0  0  0  0  0  0  0  0
  110.3603   80.1503   91.7538 H   0  0  0  0  0  0  0  0  0  0  0  0
  108.3954   81.0270   91.8206 C   0  0  0  0  0  0  0  0  0  0  0  0
  107.2424   80.0693   91.6203 C   0  0  0  0  0  0  0  0  0  0  0  0
  107.4593   78.9038   91.2055 O   0  0  0  0  0  0  0  0  0  0  0  0
  105.8834   80.5019   91.7709 N   0  0  0  0  0  0  0  0  0  0  0  0
  105.1426   80.3529   93.0114 C   0  0  0  0  0  0  0  0  0  0  0  0
  103.6759   80.4987   92.6333 C   0  0  0  0  0  0  0  0  0  0  0  0
  103.6706   81.1823   91.2677 C   0  0  0  0  0  0  0  0  0  0  0  0
  105.0342   80.8739   90.6467 C   0  0  0  0  0  0  0  0  0  0  0  0
  104.9356   79.7526   89.6490 C   0  0  0  0  0  0  0  0  0  0  0  0
  105.9358   79.5862   88.7018 O   0  0  0  0  0  0  0  0  0  0  0  0
  103.9347   78.9866   89.6515 O   0  0  0  0  0  0  0  0  0  0  0  0
  105.8810   78.8468   88.0120 H   0  0  0  0  0  0  0  0  0  0  0  0
  108.6705   81.3368   93.3062 C   0  0  0  0  0  0  0  0  0  0  0  0
  110.2519   82.2167   93.5417 S   0  0  0  0  0  0  0  0  0  0  0  0
  109.9205   83.3050   92.7213 H   0  0  0  0  0  0  0  0  0  0  0  0
  109.5662   79.3329   87.8698 C   0  0  0  0  0  0  0  0  0  0  0  0
  110.4572   79.6110   86.6866 C   0  0  0  0  0  0  0  0  0  0  0  0
  110.1484   79.4038   85.3616 C   0  0  0  0  0  0  0  0  0  0  0  0
  111.2104   79.7361   84.6025 N   0  0  0  0  0  0  0  0  0  0  0  0
  112.1478   80.1283   85.4916 C   0  0  0  0  0  0  0  0  0  0  0  0
  111.7208   80.0643   86.7659 N   0  0  0  0  0  0  0  0  0  0  0  0
  112.2708   80.2746   87.6283 H   0  0  0  0  0  0  0  0  0  0  0  0
  107.6274   85.1517   87.1192 C   0  0  0  0  0  0  0  0  0  0  0  0
  108.7481   86.1739   86.8638 C   0  0  0  0  0  0  0  0  0  0  0  0
  108.4182   87.0628   85.6967 C   0  0  0  0  0  0  0  0  0  0  0  0
  107.8006   86.5921   84.7044 O   0  0  0  0  0  0  0  0  0  0  0  0
  108.8090   88.4374   85.7001 N   0  0  0  0  0  0  0  0  0  0  0  0
  108.5409   89.0640   84.9087 H   0  0  0  0  0  0  0  0  0  0  0  0
  109.3748   88.8359   86.4811 H   0  0  0  0  0  0  0  0  0  0  0  0
  111.5577   83.1275   83.2781 C   0  0  0  0  0  0  0  0  0  0  0  0
  111.7742   82.7039   81.8151 C   0  0  0  0  0  0  0  0  0  0  0  0
  110.6200   83.1287   80.8893 C   0  0  0  0  0  0  0  0  0  0  0  0
  111.0571   83.6900   79.5199 C   0  0  0  0  0  0  0  0  0  0  0  0
  110.0516   84.5754   78.9272 N   0  0  0  0  0  0  0  0  0  0  0  0
  110.0202   85.4673   79.4761 H   0  0  0  0  0  0  0  0  0  0  0  0
  109.1160   84.1246   78.9947 H   0  0  0  0  0  0  0  0  0  0  0  0
  112.8747   88.4026   85.6519 C   0  0  0  0  0  0  0  0  0  0  0  0
  111.9437   89.2268   85.4488 O   0  0  0  0  0  0  0  0  0  0  0  0
  113.3872   87.6223   84.5688 N   0  0  0  0  0  0  0  0  0  0  0  0
  114.4141   87.4229   84.5321 H   0  0  0  0  0  0  0  0  0  0  0  0
  113.3009   88.0796   87.0542 C   0  0  0  0  0  0  0  0  0  0  0  0
  115.6785   87.2126   87.3534 C   0  0  0  0  0  0  0  0  0  0  0  0
  116.5750   86.6029   86.7008 O   0  0  0  0  0  0  0  0  0  0  0  0
  114.3017   87.0112   86.9911 N   0  0  0  0  0  0  0  0  0  0  0  0
  114.1016   86.1950   86.3736 H   0  0  0  0  0  0  0  0  0  0  0  0
  116.0545   88.0538   88.5549 C   0  0  0  0  0  0  0  0  0  0  0  0
  117.8380   89.8091   88.9516 C   0  0  0  0  0  0  0  0  0  0  0  0
  116.9733   90.7277   88.9868 O   0  0  0  0  0  0  0  0  0  0  0  0
  117.4572   88.4927   88.5184 N   0  0  0  0  0  0  0  0  0  0  0  0
  118.2142   87.8407   88.2195 H   0  0  0  0  0  0  0  0  0  0  0  0
  119.2627   90.0703   89.3794 C   0  0  0  0  0  0  0  0  0  0  0  0
  119.6100   91.5362   89.1226 C   0  0  0  0  0  0  0  0  0  0  0  0
  121.4476   88.7492   89.2980 C   0  0  0  0  0  0  0  0  0  0  0  0
  121.8173   89.2302   90.4033 O   0  0  0  0  0  0  0  0  0  0  0  0
  120.2229   89.1924   88.6882 N   0  0  0  0  0  0  0  0  0  0  0  0
  120.0154   88.8261   87.7350 H   0  0  0  0  0  0  0  0  0  0  0  0
  122.3017   87.7062   88.6201 C   0  0  0  0  0  0  0  0  0  0  0  0
  123.5558   87.4894   86.4255 C   0  0  0  0  0  0  0  0  0  0  0  0
  123.2354   86.7442   85.4578 O   0  0  0  0  0  0  0  0  0  0  0  0
  122.5163   88.0761   87.2173 N   0  0  0  0  0  0  0  0  0  0  0  0
  121.6881   88.4191   86.6898 H   0  0  0  0  0  0  0  0  0  0  0  0
  125.0205   87.8541   86.6022 C   0  0  0  0  0  0  0  0  0  0  0  0
  126.4839   85.8157   86.7448 C   0  0  0  0  0  0  0  0  0  0  0  0
  127.3330   86.1083   85.8583 O   0  0  0  0  0  0  0  0  0  0  0  0
  125.7524   86.8618   87.3926 N   0  0  0  0  0  0  0  0  0  0  0  0
  125.7884   86.9250   88.4324 H   0  0  0  0  0  0  0  0  0  0  0  0
  124.8314   84.2533   87.6436 N   0  0  0  0  0  0  0  0  0  0  0  0
  126.1724   84.3667   87.0543 C   0  0  0  0  0  0  0  0  0  0  0  0
  124.6958   83.2662   87.9656 H   0  0  0  0  0  0  0  0  0  0  0  0
  124.7973   84.8401   88.5075 H   0  0  0  0  0  0  0  0  0  0  0  0
  126.3172   83.4705   85.8043 C   0  0  0  0  0  0  0  0  0  0  0  0
  127.6832   83.1895   85.6036 O   0  0  0  0  0  0  0  0  0  0  0  0
  125.5410   82.1520   85.9304 C   0  0  0  0  0  0  0  0  0  0  0  0
  127.7723   82.8426   84.6795 H   0  0  0  0  0  0  0  0  0  0  0  0
  125.1831   89.2621   87.2007 C   0  0  0  0  0  0  0  0  0  0  0  0
  125.8946   90.2597   86.2693 C   0  0  0  0  0  0  0  0  0  0  0  0
  127.2664   89.7837   85.8626 C   0  0  0  0  0  0  0  0  0  0  0  0
  127.5380   89.5254   84.6609 O   0  0  0  0  0  0  0  0  0  0  0  0
  128.2829   89.6369   86.8524 N   0  0  0  0  0  0  0  0  0  0  0  0
  129.2402   89.3267   86.5817 H   0  0  0  0  0  0  0  0  0  0  0  0
  128.0944   89.8853   87.8515 H   0  0  0  0  0  0  0  0  0  0  0  0
  121.7844   86.2414   88.7432 C   0  0  0  0  0  0  0  0  0  0  0  0
  120.5577   85.8378   87.8987 C   0  0  0  0  0  0  0  0  0  0  0  0
  120.0980   84.4025   88.0143 C   0  0  0  0  0  0  0  0  0  0  0  0
  118.8789   84.1517   87.8409 O   0  0  0  0  0  0  0  0  0  0  0  0
  120.9770   83.3257   88.3565 N   0  0  0  0  0  0  0  0  0  0  0  0
  121.9513   83.4779   88.6890 H   0  0  0  0  0  0  0  0  0  0  0  0
  120.6078   82.3460   88.3904 H   0  0  0  0  0  0  0  0  0  0  0  0
  115.7682   87.2559   89.8440 C   0  0  0  0  0  0  0  0  0  0  0  0
  115.5694   85.8941   89.5573 O   0  0  0  0  0  0  0  0  0  0  0  0
  116.4703   85.4699   89.5651 H   0  0  0  0  0  0  0  0  0  0  0  0
  112.1090   87.6650   87.9364 C   0  0  0  0  0  0  0  0  0  0  0  0
  111.9594   88.6064   89.0979 C   0  0  0  0  0  0  0  0  0  0  0  0
  112.3037   88.3409   90.4105 C   0  0  0  0  0  0  0  0  0  0  0  0
  111.9649   89.3984   91.1767 N   0  0  0  0  0  0  0  0  0  0  0  0
  111.4234   90.2829   90.3072 C   0  0  0  0  0  0  0  0  0  0  0  0
  111.4156   89.8310   89.0361 N   0  0  0  0  0  0  0  0  0  0  0  0
  111.0309   90.3208   88.1997 H   0  0  0  0  0  0  0  0  0  0  0  0
 95 96  1  0  0  0
 96 91  1  0  0  0
 91 92  2  0  0  0
 91 93  1  0  0  0
 93 90  1  0  0  0
 90103  1  0  0  0
103104  1  0  0  0
104105  1  0  0  0
105106  2  0  0  0
105107  1  0  0  0
 90 86  1  0  0  0
 86 87  2  0  0  0
 86 88  1  0  0  0
 88 85  1  0  0  0
 85110  1  0  0  0
110111  1  0  0  0
111112  1  0  0  0
112113  2  0  0  0
112114  1  0  0  0
 85 81  1  0  0  0
 81 82  2  0  0  0
 81 83  1  0  0  0
 83 79  1  0  0  0
 79 80  1  0  0  0
 79 75  1  0  0  0
 75 76  2  0  0  0
 75 77  1  0  0  0
 77 74  1  0  0  0
 74117  1  0  0  0
117118  1  0  0  0
 74 70  1  0  0  0
 70 71  2  0  0  0
 70 72  1  0  0  0
 72 69  1  0  0  0
 69120  1  0  0  0
120121  1  0  0  0
121122  2  0  0  0
122123  1  0  0  0
123124  2  0  0  0
124125  1  0  0  0
 69 65  1  0  0  0
 65 66  2  0  0  0
 65 67  1  0  0  0
 67  1  1  0  0  0
  1  2  1  0  0  0
  2  3  2  0  0  0
  3  4  1  0  0  0
  4  5  2  0  0  0
  5  6  1  0  0  0
  5  7  1  0  0  0
  7  8  2  0  0  0
  1 10  1  0  0  0
 10 11  2  0  0  0
 10 12  1  0  0  0
 12 14  1  0  0  0
 14 58  1  0  0  0
 58 59  1  0  0  0
 59 60  1  0  0  0
 60 61  1  0  0  0
 61 62  1  0  0  0
 14 15  1  0  0  0
 15 16  2  0  0  0
 15 17  1  0  0  0
 17 19  1  0  0  0
 19 51  1  0  0  0
 51 52  1  0  0  0
 52 53  1  0  0  0
 53 54  2  0  0  0
 53 55  1  0  0  0
 19 20  1  0  0  0
 20 21  2  0  0  0
 20 22  1  0  0  0
 22 24  1  0  0  0
 24 44  1  0  0  0
 44 45  1  0  0  0
 45 46  2  0  0  0
 46 47  1  0  0  0
 47 48  2  0  0  0
 48 49  1  0  0  0
 24 25  1  0  0  0
 25 26  2  0  0  0
 25 27  1  0  0  0
 27 29  1  0  0  0
 29 41  1  0  0  0
 41 42  1  0  0  0
 29 30  1  0  0  0
 30 31  2  0  0  0
 30 32  1  0  0  0
 32 33  1  0  0  0
 33 34  1  0  0  0
 34 35  1  0  0  0
 35 36  1  0  0  0
 36 37  1  0  0  0
 37 38  1  0  0  0
 37 39  2  0  0  0
 96 99  1  0  0  0
 99100  1  0  0  0
 99101  1  0  0  0
125121  1  0  0  0
  8  2  1  0  0  0
 49 45  1  0  0  0
 36 32  1  0  0  0
 95 97  1  0  0  0
 95 98  1  0  0  0
 93 94  1  0  0  0
107108  1  0  0  0
107109  1  0  0  0
 88 89  1  0  0  0
114115  1  0  0  0
114116  1  0  0  0
 83 84  1  0  0  0
 77 78  1  0  0  0
118119  1  0  0  0
 72 73  1  0  0  0
125126  1  0  0  0
 67 68  1  0  0  0
  6  9  1  0  0  0
 12 13  1  0  0  0
 62 63  1  0  0  0
 62 64  1  0  0  0
 17 18  1  0  0  0
 55 56  1  0  0  0
 55 57  1  0  0  0
 22 23  1  0  0  0
 49 50  1  0  0  0
 27 28  1  0  0  0
 42 43  1  0  0  0
 38 40  1  0  0  0
100102  1  0  0  0
M  END
> <minimizedAffinity>
-6.84414

$$$$



126129  0  0  0  0  0  0  0  0999 V2000
   96.9697   97.1513  109.6312 C   0  0  0  0  0  0  0  0  0  0  0  0
   96.6710   98.6312  109.6971 C   0  0  0  0  0  0  0  0  0  0  0  0
   95.6697   99.1301  110.5496 C   0  0  0  0  0  0  0  0  0  0  0  0
   95.4369  100.5046  110.6378 C   0  0  0  0  0  0  0  0  0  0  0  0
   96.1859  101.3983  109.8620 C   0  0  0  0  0  0  0  0  0  0  0  0
   95.9480  102.7687  109.9593 O   0  0  0  0  0  0  0  0  0  0  0  0
   97.1734  100.9089  108.9987 C   0  0  0  0  0  0  0  0  0  0  0  0
   97.4195   99.5339  108.9251 C   0  0  0  0  0  0  0  0  0  0  0  0
   96.4461  103.4307  109.3757 H   0  0  0  0  0  0  0  0  0  0  0  0
   98.2854   96.8428  110.2967 C   0  0  0  0  0  0  0  0  0  0  0  0
   98.6945   95.6552  110.3848 O   0  0  0  0  0  0  0  0  0  0  0  0
   99.0585   97.9043  110.8731 N   0  0  0  0  0  0  0  0  0  0  0  0
   99.1342   98.7869  110.3167 H   0  0  0  0  0  0  0  0  0  0  0  0
   99.4161   97.9931  112.2985 C   0  0  0  0  0  0  0  0  0  0  0  0
  100.4261   96.9177  112.6221 C   0  0  0  0  0  0  0  0  0  0  0  0
  100.4300   96.3623  113.7579 O   0  0  0  0  0  0  0  0  0  0  0  0
  101.3934   96.5371  111.6336 N   0  0  0  0  0  0  0  0  0  0  0  0
  101.2370   96.8504  110.6483 H   0  0  0  0  0  0  0  0  0  0  0  0
  102.7380   96.0817  112.0050 C   0  0  0  0  0  0  0  0  0  0  0  0
  103.1392   94.9115  111.1396 C   0  0  0  0  0  0  0  0  0  0  0  0
  103.0433   95.0055  109.8873 O   0  0  0  0  0  0  0  0  0  0  0  0
  103.6895   93.7216  111.7341 N   0  0  0  0  0  0  0  0  0  0  0  0
  103.8190   93.7216  112.7738 H   0  0  0  0  0  0  0  0  0  0  0  0
  104.3245   92.6686  110.9240 C   0  0  0  0  0  0  0  0  0  0  0  0
  103.3280   91.6142  110.4860 C   0  0  0  0  0  0  0  0  0  0  0  0
  103.2858   91.2693  109.2736 O   0  0  0  0  0  0  0  0  0  0  0  0
  102.3272   91.0922  111.3810 N   0  0  0  0  0  0  0  0  0  0  0  0
  101.3764   90.9418  110.9676 H   0  0  0  0  0  0  0  0  0  0  0  0
  102.5793   90.4483  112.6833 C   0  0  0  0  0  0  0  0  0  0  0  0
  101.9443   91.2202  113.8180 C   0  0  0  0  0  0  0  0  0  0  0  0
  102.1902   92.4436  113.9600 O   0  0  0  0  0  0  0  0  0  0  0  0
  101.1626   90.5568  114.8208 N   0  0  0  0  0  0  0  0  0  0  0  0
   99.7162   90.4463  114.7462 C   0  0  0  0  0  0  0  0  0  0  0  0
   99.2576   90.1042  116.1562 C   0  0  0  0  0  0  0  0  0  0  0  0
  100.4993   89.5820  116.8757 C   0  0  0  0  0  0  0  0  0  0  0  0
  101.6920   90.1755  116.1239 C   0  0  0  0  0  0  0  0  0  0  0  0
  102.2530   91.3675  116.8496 C   0  0  0  0  0  0  0  0  0  0  0  0
  101.4938   92.5235  116.9612 O   0  0  0  0  0  0  0  0  0  0  0  0
  103.4189   91.3294  117.3269 O   0  0  0  0  0  0  0  0  0  0  0  0
  101.8589   93.3421  117.4328 H   0  0  0  0  0  0  0  0  0  0  0  0
  102.1663   88.9625  112.6596 C   0  0  0  0  0  0  0  0  0  0  0  0
  103.4150   87.8911  113.4491 S   0  0  0  0  0  0  0  0  0  0  0  0
  103.3751   88.5372  114.6935 H   0  0  0  0  0  0  0  0  0  0  0  0
  105.4889   92.0333  111.7144 C   0  0  0  0  0  0  0  0  0  0  0  0
  106.1003   90.8556  110.9998 C   0  0  0  0  0  0  0  0  0  0  0  0
  106.3817   89.6231  111.5435 C   0  0  0  0  0  0  0  0  0  0  0  0
  106.9562   88.8462  110.6050 N   0  0  0  0  0  0  0  0  0  0  0  0
  107.0206   89.6350  109.5110 C   0  0  0  0  0  0  0  0  0  0  0  0
  106.5082   90.8616  109.7184 N   0  0  0  0  0  0  0  0  0  0  0  0
  106.4805   91.6577  109.0432 H   0  0  0  0  0  0  0  0  0  0  0  0
  103.7526   97.2324  111.8354 C   0  0  0  0  0  0  0  0  0  0  0  0
  104.7265   97.3357  113.0215 C   0  0  0  0  0  0  0  0  0  0  0  0
  104.4716   98.5787  113.8284 C   0  0  0  0  0  0  0  0  0  0  0  0
  105.1156   98.7790  114.8927 O   0  0  0  0  0  0  0  0  0  0  0  0
  103.4959   99.5316  113.4016 N   0  0  0  0  0  0  0  0  0  0  0  0
  103.3511  100.4153  113.9392 H   0  0  0  0  0  0  0  0  0  0  0  0
  102.9060   99.3595  112.5582 H   0  0  0  0  0  0  0  0  0  0  0  0
   98.1881   97.9591  113.2436 C   0  0  0  0  0  0  0  0  0  0  0  0
   97.7003   99.3670  113.6267 C   0  0  0  0  0  0  0  0  0  0  0  0
   98.6584  100.4808  113.1671 C   0  0  0  0  0  0  0  0  0  0  0  0
   99.4654  101.1527  114.2978 C   0  0  0  0  0  0  0  0  0  0  0  0
  100.8752  100.7545  114.2968 N   0  0  0  0  0  0  0  0  0  0  0  0
  101.3485  101.1867  113.4679 H   0  0  0  0  0  0  0  0  0  0  0  0
  100.9388   99.7203  114.1988 H   0  0  0  0  0  0  0  0  0  0  0  0
   95.1615   95.4163  109.4643 C   0  0  0  0  0  0  0  0  0  0  0  0
   94.7237   95.7233  108.3234 O   0  0  0  0  0  0  0  0  0  0  0  0
   95.8790   96.3815  110.2377 N   0  0  0  0  0  0  0  0  0  0  0  0
   95.7361   96.4047  111.2743 H   0  0  0  0  0  0  0  0  0  0  0  0
   95.1233   93.9888  109.9257 C   0  0  0  0  0  0  0  0  0  0  0  0
   93.8277   92.1658  108.7043 C   0  0  0  0  0  0  0  0  0  0  0  0
   92.9611   92.0418  107.7905 O   0  0  0  0  0  0  0  0  0  0  0  0
   93.8710   93.3915  109.4546 N   0  0  0  0  0  0  0  0  0  0  0  0
   93.0383   94.0137  109.3706 H   0  0  0  0  0  0  0  0  0  0  0  0
   94.7273   91.0008  109.0595 C   0  0  0  0  0  0  0  0  0  0  0  0
   94.9744   89.3279  110.9461 C   0  0  0  0  0  0  0  0  0  0  0  0
   94.9176   88.3591  110.1392 O   0  0  0  0  0  0  0  0  0  0  0  0
   94.6616   90.6531  110.4865 N   0  0  0  0  0  0  0  0  0  0  0  0
   94.4303   91.3748  111.2029 H   0  0  0  0  0  0  0  0  0  0  0  0
   95.3876   89.1150  112.3832 C   0  0  0  0  0  0  0  0  0  0  0  0
   94.9798   90.3305  113.2149 C   0  0  0  0  0  0  0  0  0  0  0  0
   97.3691   87.6276  113.0055 C   0  0  0  0  0  0  0  0  0  0  0  0
   96.6013   86.7508  113.4867 O   0  0  0  0  0  0  0  0  0  0  0  0
   96.8342   88.8702  112.5174 N   0  0  0  0  0  0  0  0  0  0  0  0
   97.5242   89.5900  112.2149 H   0  0  0  0  0  0  0  0  0  0  0  0
   98.8534   87.3628  112.9478 C   0  0  0  0  0  0  0  0  0  0  0  0
   98.4487   86.7204  110.5271 C   0  0  0  0  0  0  0  0  0  0  0  0
   98.0171   87.4839  109.6186 O   0  0  0  0  0  0  0  0  0  0  0  0
   99.2869   87.2710  111.5498 N   0  0  0  0  0  0  0  0  0  0  0  0
   99.9894   87.9677  111.2289 H   0  0  0  0  0  0  0  0  0  0  0  0
   98.1891   85.2284  110.4005 C   0  0  0  0  0  0  0  0  0  0  0  0
   97.5376   83.4458  112.0482 C   0  0  0  0  0  0  0  0  0  0  0  0
   97.3308   82.4912  111.2492 O   0  0  0  0  0  0  0  0  0  0  0  0
   98.4082   84.5137  111.6600 N   0  0  0  0  0  0  0  0  0  0  0  0
   99.2219   84.7404  112.2706 H   0  0  0  0  0  0  0  0  0  0  0  0
   95.3675   83.7470  113.1344 N   0  0  0  0  0  0  0  0  0  0  0  0
   96.7984   83.5100  113.3681 C   0  0  0  0  0  0  0  0  0  0  0  0
   94.9066   83.9162  114.0592 H   0  0  0  0  0  0  0  0  0  0  0  0
   95.2614   84.6375  112.5980 H   0  0  0  0  0  0  0  0  0  0  0  0
   97.0291   82.2391  114.2154 C   0  0  0  0  0  0  0  0  0  0  0  0
   96.5601   81.1226  113.4953 O   0  0  0  0  0  0  0  0  0  0  0  0
   98.5073   82.0283  114.5726 C   0  0  0  0  0  0  0  0  0  0  0  0
   96.4811   80.3759  114.1423 H   0  0  0  0  0  0  0  0  0  0  0  0
   99.0185   84.6059  109.2638 C   0  0  0  0  0  0  0  0  0  0  0  0
  100.5192   84.4790  109.5812 C   0  0  0  0  0  0  0  0  0  0  0  0
  101.3723   85.3023  108.6494 C   0  0  0  0  0  0  0  0  0  0  0  0
  101.5597   86.5308  108.8501 O   0  0  0  0  0  0  0  0  0  0  0  0
  101.9932   84.6784  107.5271 N   0  0  0  0  0  0  0  0  0  0  0  0
  102.6002   85.2321  106.8862 H   0  0  0  0  0  0  0  0  0  0  0  0
  101.8872   83.6502  107.3621 H   0  0  0  0  0  0  0  0  0  0  0  0
   99.3413   86.1324  113.7703 C   0  0  0  0  0  0  0  0  0  0  0  0
   99.7799   86.3706  115.2304 C   0  0  0  0  0  0  0  0  0  0  0  0
   98.8098   85.9427  116.3078 C   0  0  0  0  0  0  0  0  0  0  0  0
   97.8366   86.6946  116.5658 O   0  0  0  0  0  0  0  0  0  0  0  0
   98.9741   84.7464  117.0766 N   0  0  0  0  0  0  0  0  0  0  0  0
   99.8416   84.1724  117.0469 H   0  0  0  0  0  0  0  0  0  0  0  0
   98.2517   84.4846  117.7886 H   0  0  0  0  0  0  0  0  0  0  0  0
   96.1765   91.3333  108.6474 C   0  0  0  0  0  0  0  0  0  0  0  0
   96.8971   90.1614  108.3581 O   0  0  0  0  0  0  0  0  0  0  0  0
   96.7326   89.9593  107.3970 H   0  0  0  0  0  0  0  0  0  0  0  0
   95.2446   93.8758  111.4565 C   0  0  0  0  0  0  0  0  0  0  0  0
   96.6551   93.5405  111.8510 C   0  0  0  0  0  0  0  0  0  0  0  0
   97.4122   92.4948  111.3555 C   0  0  0  0  0  0  0  0  0  0  0  0
   98.6017   92.4730  111.9917 N   0  0  0  0  0  0  0  0  0  0  0  0
   98.5374   93.5100  112.8589 C   0  0  0  0  0  0  0  0  0  0  0  0
   97.3693   94.1812  112.7882 N   0  0  0  0  0  0  0  0  0  0  0  0
   97.0796   94.9968  113.3698 H   0  0  0  0  0  0  0  0  0  0  0  0
 95 96  1  0  0  0
 96 91  1  0  0  0
 91 92  2  0  0  0
 91 93  1  0  0  0
 93 90  1  0  0  0
 90103  1  0  0  0
103104  1  0  0  0
104105  1  0  0  0
105106  2  0  0  0
105107  1  0  0  0
 90 86  1  0  0  0
 86 87  2  0  0  0
 86 88  1  0  0  0
 88 85  1  0  0  0
 85110  1  0  0  0
110111  1  0  0  0
111112  1  0  0  0
112113  2  0  0  0
112114  1  0  0  0
 85 81  1  0  0  0
 81 82  2  0  0  0
 81 83  1  0  0  0
 83 79  1  0  0  0
 79 80  1  0  0  0
 79 75  1  0  0  0
 75 76  2  0  0  0
 75 77  1  0  0  0
 77 74  1  0  0  0
 74117  1  0  0  0
117118  1  0  0  0
 74 70  1  0  0  0
 70 71  2  0  0  0
 70 72  1  0  0  0
 72 69  1  0  0  0
 69120  1  0  0  0
120121  1  0  0  0
121122  2  0  0  0
122123  1  0  0  0
123124  2  0  0  0
124125  1  0  0  0
 69 65  1  0  0  0
 65 66  2  0  0  0
 65 67  1  0  0  0
 67  1  1  0  0  0
  1  2  1  0  0  0
  2  3  2  0  0  0
  3  4  1  0  0  0
  4  5  2  0  0  0
  5  6  1  0  0  0
  5  7  1  0  0  0
  7  8  2  0  0  0
  1 10  1  0  0  0
 10 11  2  0  0  0
 10 12  1  0  0  0
 12 14  1  0  0  0
 14 58  1  0  0  0
 58 59  1  0  0  0
 59 60  1  0  0  0
 60 61  1  0  0  0
 61 62  1  0  0  0
 14 15  1  0  0  0
 15 16  2  0  0  0
 15 17  1  0  0  0
 17 19  1  0  0  0
 19 51  1  0  0  0
 51 52  1  0  0  0
 52 53  1  0  0  0
 53 54  2  0  0  0
 53 55  1  0  0  0
 19 20  1  0  0  0
 20 21  2  0  0  0
 20 22  1  0  0  0
 22 24  1  0  0  0
 24 44  1  0  0  0
 44 45  1  0  0  0
 45 46  2  0  0  0
 46 47  1  0  0  0
 47 48  2  0  0  0
 48 49  1  0  0  0
 24 25  1  0  0  0
 25 26  2  0  0  0
 25 27  1  0  0  0
 27 29  1  0  0  0
 29 41  1  0  0  0
 41 42  1  0  0  0
 29 30  1  0  0  0
 30 31  2  0  0  0
 30 32  1  0  0  0
 32 33  1  0  0  0
 33 34  1  0  0  0
 34 35  1  0  0  0
 35 36  1  0  0  0
 36 37  1  0  0  0
 37 38  1  0  0  0
 37 39  2  0  0  0
 96 99  1  0  0  0
 99100  1  0  0  0
 99101  1  0  0  0
125121  1  0  0  0
  8  2  1  0  0  0
 49 45  1  0  0  0
 36 32  1  0  0  0
 95 97  1  0  0  0
 95 98  1  0  0  0
 93 94  1  0  0  0
107108  1  0  0  0
107109  1  0  0  0
 88 89  1  0  0  0
114115  1  0  0  0
114116  1  0  0  0
 83 84  1  0  0  0
 77 78  1  0  0  0
118119  1  0  0  0
 72 73  1  0  0  0
125126  1  0  0  0
 67 68  1  0  0  0
  6  9  1  0  0  0
 12 13  1  0  0  0
 62 63  1  0  0  0
 62 64  1  0  0  0
 17 18  1  0  0  0
 55 56  1  0  0  0
 55 57  1  0  0  0
 22 23  1  0  0  0
 49 50  1  0  0  0
 27 28  1  0  0  0
 42 43  1  0  0  0
 38 40  1  0  0  0
100102  1  0  0  0
M  END
> <minimizedAffinity>
-6.75613

$$$$



126129  0  0  0  0  0  0  0  0999 V2000
  112.9376   86.3235   83.2506 C   0  0  0  0  0  0  0  0  0  0  0  0
  113.6759   85.6140   82.1393 C   0  0  0  0  0  0  0  0  0  0  0  0
  114.5694   84.5643   82.4191 C   0  0  0  0  0  0  0  0  0  0  0  0
  115.2082   83.8840   81.3797 C   0  0  0  0  0  0  0  0  0  0  0  0
  114.9798   84.2546   80.0485 C   0  0  0  0  0  0  0  0  0  0  0  0
  115.6200   83.5675   79.0179 O   0  0  0  0  0  0  0  0  0  0  0  0
  114.1045   85.3090   79.7620 C   0  0  0  0  0  0  0  0  0  0  0  0
  113.4501   85.9773   80.8021 C   0  0  0  0  0  0  0  0  0  0  0  0
  115.5050   83.8462   78.0504 H   0  0  0  0  0  0  0  0  0  0  0  0
  112.0805   85.3557   84.0239 C   0  0  0  0  0  0  0  0  0  0  0  0
  112.5056   84.8346   85.0884 O   0  0  0  0  0  0  0  0  0  0  0  0
  110.7873   84.9910   83.5224 N   0  0  0  0  0  0  0  0  0  0  0  0
  110.1984   85.7635   83.1341 H   0  0  0  0  0  0  0  0  0  0  0  0
  110.3908   83.6189   83.1653 C   0  0  0  0  0  0  0  0  0  0  0  0
  109.4782   83.0737   84.2383 C   0  0  0  0  0  0  0  0  0  0  0  0
  108.7919   82.0327   84.0286 O   0  0  0  0  0  0  0  0  0  0  0  0
  109.3842   83.7537   85.4978 N   0  0  0  0  0  0  0  0  0  0  0  0
  110.1085   84.4740   85.7215 H   0  0  0  0  0  0  0  0  0  0  0  0
  108.1426   83.7615   86.2797 C   0  0  0  0  0  0  0  0  0  0  0  0
  108.2682   82.8148   87.4491 C   0  0  0  0  0  0  0  0  0  0  0  0
  107.5135   82.9594   88.4470 O   0  0  0  0  0  0  0  0  0  0  0  0
  109.1958   81.7152   87.3989 N   0  0  0  0  0  0  0  0  0  0  0  0
  109.7472   81.5938   86.5163 H   0  0  0  0  0  0  0  0  0  0  0  0
  109.1722   80.6306   88.3946 C   0  0  0  0  0  0  0  0  0  0  0  0
  110.0460   80.9439   89.5924 C   0  0  0  0  0  0  0  0  0  0  0  0
  111.2317   81.3322   89.4079 O   0  0  0  0  0  0  0  0  0  0  0  0
  109.6154   80.6777   90.9410 N   0  0  0  0  0  0  0  0  0  0  0  0
  110.3435   80.2887   91.5862 H   0  0  0  0  0  0  0  0  0  0  0  0
  108.3916   81.1965   91.5791 C   0  0  0  0  0  0  0  0  0  0  0  0
  107.2602   80.1957   91.5090 C   0  0  0  0  0  0  0  0  0  0  0  0
  107.4924   79.0081   91.1726 O   0  0  0  0  0  0  0  0  0  0  0  0
  105.8973   80.6021   91.6942 N   0  0  0  0  0  0  0  0  0  0  0  0
  105.2213   80.5286   92.9778 C   0  0  0  0  0  0  0  0  0  0  0  0
  103.7345   80.6057   92.6634 C   0  0  0  0  0  0  0  0  0  0  0  0
  103.6433   81.1825   91.2522 C   0  0  0  0  0  0  0  0  0  0  0  0
  104.9845   80.8641   90.5890 C   0  0  0  0  0  0  0  0  0  0  0  0
  104.8727   79.6675   89.6845 C   0  0  0  0  0  0  0  0  0  0  0  0
  105.7854   79.4985   88.6532 O   0  0  0  0  0  0  0  0  0  0  0  0
  103.9365   78.8384   89.8412 O   0  0  0  0  0  0  0  0  0  0  0  0
  105.7188   78.7078   88.0239 H   0  0  0  0  0  0  0  0  0  0  0  0
  108.6756   81.6857   93.0140 C   0  0  0  0  0  0  0  0  0  0  0  0
  110.4573   81.9482   93.3088 S   0  0  0  0  0  0  0  0  0  0  0  0
  110.6248   82.8848   92.2783 H   0  0  0  0  0  0  0  0  0  0  0  0
  109.6003   79.3039   87.7309 C   0  0  0  0  0  0  0  0  0  0  0  0
  110.5250   79.5134   86.5594 C   0  0  0  0  0  0  0  0  0  0  0  0
  110.2759   79.1773   85.2483 C   0  0  0  0  0  0  0  0  0  0  0  0
  111.3529   79.4853   84.5003 N   0  0  0  0  0  0  0  0  0  0  0  0
  112.2394   79.9934   85.3830 C   0  0  0  0  0  0  0  0  0  0  0  0
  111.7662   80.0243   86.6421 N   0  0  0  0  0  0  0  0  0  0  0  0
  112.2738   80.3328   87.5009 H   0  0  0  0  0  0  0  0  0  0  0  0
  107.8460   85.1882   86.7887 C   0  0  0  0  0  0  0  0  0  0  0  0
  108.9616   86.1838   86.4275 C   0  0  0  0  0  0  0  0  0  0  0  0
  108.5669   87.0423   85.2577 C   0  0  0  0  0  0  0  0  0  0  0  0
  108.2863   86.5064   84.1524 O   0  0  0  0  0  0  0  0  0  0  0  0
  108.5168   88.4646   85.3875 N   0  0  0  0  0  0  0  0  0  0  0  0
  108.2002   89.0565   84.5874 H   0  0  0  0  0  0  0  0  0  0  0  0
  108.8040   88.9363   86.2729 H   0  0  0  0  0  0  0  0  0  0  0  0
  111.5948   82.6859   82.8785 C   0  0  0  0  0  0  0  0  0  0  0  0
  111.5712   82.1159   81.4498 C   0  0  0  0  0  0  0  0  0  0  0  0
  110.4958   82.7663   80.5608 C   0  0  0  0  0  0  0  0  0  0  0  0
  111.0411   83.5604   79.3553 C   0  0  0  0  0  0  0  0  0  0  0  0
  110.2417   84.7514   79.0574 N   0  0  0  0  0  0  0  0  0  0  0  0
  110.3955   85.4602   79.8136 H   0  0  0  0  0  0  0  0  0  0  0  0
  109.2329   84.4957   79.0584 H   0  0  0  0  0  0  0  0  0  0  0  0
  113.4195   88.0141   85.0442 C   0  0  0  0  0  0  0  0  0  0  0  0
  112.6554   88.9295   84.6373 O   0  0  0  0  0  0  0  0  0  0  0  0
  113.8827   87.0130   84.1344 N   0  0  0  0  0  0  0  0  0  0  0  0
  114.8626   86.6580   84.2308 H   0  0  0  0  0  0  0  0  0  0  0  0
  113.6729   87.8433   86.5135 C   0  0  0  0  0  0  0  0  0  0  0  0
  116.0560   87.1456   87.0863 C   0  0  0  0  0  0  0  0  0  0  0  0
  117.0149   86.4833   86.5931 O   0  0  0  0  0  0  0  0  0  0  0  0
  114.7141   86.8260   86.6806 N   0  0  0  0  0  0  0  0  0  0  0  0
  114.5848   85.9145   86.1907 H   0  0  0  0  0  0  0  0  0  0  0  0
  116.3217   88.1816   88.1580 C   0  0  0  0  0  0  0  0  0  0  0  0
  117.9867   90.0124   88.7010 C   0  0  0  0  0  0  0  0  0  0  0  0
  117.0600   90.8036   89.0299 O   0  0  0  0  0  0  0  0  0  0  0  0
  117.6633   88.7731   88.0493 N   0  0  0  0  0  0  0  0  0  0  0  0
  118.4245   88.2815   87.5331 H   0  0  0  0  0  0  0  0  0  0  0  0
  119.4294   90.3419   89.0032 C   0  0  0  0  0  0  0  0  0  0  0  0
  119.7143   91.7897   88.6057 C   0  0  0  0  0  0  0  0  0  0  0  0
  121.4424   88.7691   88.9993 C   0  0  0  0  0  0  0  0  0  0  0  0
  121.7188   89.0677   90.1927 O   0  0  0  0  0  0  0  0  0  0  0  0
  120.3647   89.4336   88.3171 N   0  0  0  0  0  0  0  0  0  0  0  0
  120.2414   89.2095   87.3070 H   0  0  0  0  0  0  0  0  0  0  0  0
  122.2527   87.7103   88.2928 C   0  0  0  0  0  0  0  0  0  0  0  0
  123.8683   87.6251   86.3387 C   0  0  0  0  0  0  0  0  0  0  0  0
  123.6048   87.9359   85.1435 O   0  0  0  0  0  0  0  0  0  0  0  0
  123.2241   88.3452   87.3962 N   0  0  0  0  0  0  0  0  0  0  0  0
  123.1275   89.3702   87.2487 H   0  0  0  0  0  0  0  0  0  0  0  0
  124.9733   86.6139   86.5952 C   0  0  0  0  0  0  0  0  0  0  0  0
  126.7521   88.3402   86.1798 C   0  0  0  0  0  0  0  0  0  0  0  0
  126.8684   88.8026   87.3482 O   0  0  0  0  0  0  0  0  0  0  0  0
  126.2476   87.0135   85.9940 N   0  0  0  0  0  0  0  0  0  0  0  0
  126.8262   86.3305   85.4599 H   0  0  0  0  0  0  0  0  0  0  0  0
  128.1179   90.1715   85.3076 N   0  0  0  0  0  0  0  0  0  0  0  0
  127.0538   89.2131   84.9800 C   0  0  0  0  0  0  0  0  0  0  0  0
  128.2137   90.8424   84.5096 H   0  0  0  0  0  0  0  0  0  0  0  0
  127.8085   90.7452   86.1243 H   0  0  0  0  0  0  0  0  0  0  0  0
  127.4157   88.3712   83.7363 C   0  0  0  0  0  0  0  0  0  0  0  0
  126.4891   88.6526   82.7129 O   0  0  0  0  0  0  0  0  0  0  0  0
  128.8362   88.6525   83.2264 C   0  0  0  0  0  0  0  0  0  0  0  0
  126.5803   87.9333   82.0371 H   0  0  0  0  0  0  0  0  0  0  0  0
  124.5659   85.2038   86.1337 C   0  0  0  0  0  0  0  0  0  0  0  0
  124.0384   84.3031   87.2648 C   0  0  0  0  0  0  0  0  0  0  0  0
  124.6808   84.6172   88.5924 C   0  0  0  0  0  0  0  0  0  0  0  0
  124.0100   85.0912   89.5462 O   0  0  0  0  0  0  0  0  0  0  0  0
  126.0709   84.3592   88.7806 N   0  0  0  0  0  0  0  0  0  0  0  0
  126.5228   84.5542   89.6991 H   0  0  0  0  0  0  0  0  0  0  0  0
  126.6413   83.9263   88.0171 H   0  0  0  0  0  0  0  0  0  0  0  0
  121.4206   86.6261   87.5443 C   0  0  0  0  0  0  0  0  0  0  0  0
  120.5338   85.6882   88.3899 C   0  0  0  0  0  0  0  0  0  0  0  0
  120.2107   84.3386   87.7909 C   0  0  0  0  0  0  0  0  0  0  0  0
  119.7726   83.4389   88.5511 O   0  0  0  0  0  0  0  0  0  0  0  0
  120.4237   84.0254   86.4104 N   0  0  0  0  0  0  0  0  0  0  0  0
  120.9469   84.6519   85.7649 H   0  0  0  0  0  0  0  0  0  0  0  0
  120.1507   83.0824   86.0447 H   0  0  0  0  0  0  0  0  0  0  0  0
  116.1218   87.5396   89.5467 C   0  0  0  0  0  0  0  0  0  0  0  0
  115.4986   88.4384   90.4298 O   0  0  0  0  0  0  0  0  0  0  0  0
  114.5176   88.3253   90.3015 H   0  0  0  0  0  0  0  0  0  0  0  0
  112.3938   87.4513   87.2759 C   0  0  0  0  0  0  0  0  0  0  0  0
  112.2265   88.3057   88.5006 C   0  0  0  0  0  0  0  0  0  0  0  0
  111.2893   88.1207   89.5002 C   0  0  0  0  0  0  0  0  0  0  0  0
  111.4021   89.1202   90.3993 N   0  0  0  0  0  0  0  0  0  0  0  0
  112.4092   89.8883   89.9225 C   0  0  0  0  0  0  0  0  0  0  0  0
  112.9340   89.4117   88.7747 N   0  0  0  0  0  0  0  0  0  0  0  0
  113.6986   89.8408   88.2101 H   0  0  0  0  0  0  0  0  0  0  0  0
 95 96  1  0  0  0
 96 91  1  0  0  0
 91 92  2  0  0  0
 91 93  1  0  0  0
 93 90  1  0  0  0
 90103  1  0  0  0
103104  1  0  0  0
104105  1  0  0  0
105106  2  0  0  0
105107  1  0  0  0
 90 86  1  0  0  0
 86 87  2  0  0  0
 86 88  1  0  0  0
 88 85  1  0  0  0
 85110  1  0  0  0
110111  1  0  0  0
111112  1  0  0  0
112113  2  0  0  0
112114  1  0  0  0
 85 81  1  0  0  0
 81 82  2  0  0  0
 81 83  1  0  0  0
 83 79  1  0  0  0
 79 80  1  0  0  0
 79 75  1  0  0  0
 75 76  2  0  0  0
 75 77  1  0  0  0
 77 74  1  0  0  0
 74117  1  0  0  0
117118  1  0  0  0
 74 70  1  0  0  0
 70 71  2  0  0  0
 70 72  1  0  0  0
 72 69  1  0  0  0
 69120  1  0  0  0
120121  1  0  0  0
121122  2  0  0  0
122123  1  0  0  0
123124  2  0  0  0
124125  1  0  0  0
 69 65  1  0  0  0
 65 66  2  0  0  0
 65 67  1  0  0  0
 67  1  1  0  0  0
  1  2  1  0  0  0
  2  3  2  0  0  0
  3  4  1  0  0  0
  4  5  2  0  0  0
  5  6  1  0  0  0
  5  7  1  0  0  0
  7  8  2  0  0  0
  1 10  1  0  0  0
 10 11  2  0  0  0
 10 12  1  0  0  0
 12 14  1  0  0  0
 14 58  1  0  0  0
 58 59  1  0  0  0
 59 60  1  0  0  0
 60 61  1  0  0  0
 61 62  1  0  0  0
 14 15  1  0  0  0
 15 16  2  0  0  0
 15 17  1  0  0  0
 17 19  1  0  0  0
 19 51  1  0  0  0
 51 52  1  0  0  0
 52 53  1  0  0  0
 53 54  2  0  0  0
 53 55  1  0  0  0
 19 20  1  0  0  0
 20 21  2  0  0  0
 20 22  1  0  0  0
 22 24  1  0  0  0
 24 44  1  0  0  0
 44 45  1  0  0  0
 45 46  2  0  0  0
 46 47  1  0  0  0
 47 48  2  0  0  0
 48 49  1  0  0  0
 24 25  1  0  0  0
 25 26  2  0  0  0
 25 27  1  0  0  0
 27 29  1  0  0  0
 29 41  1  0  0  0
 41 42  1  0  0  0
 29 30  1  0  0  0
 30 31  2  0  0  0
 30 32  1  0  0  0
 32 33  1  0  0  0
 33 34  1  0  0  0
 34 35  1  0  0  0
 35 36  1  0  0  0
 36 37  1  0  0  0
 37 38  1  0  0  0
 37 39  2  0  0  0
 96 99  1  0  0  0
 99100  1  0  0  0
 99101  1  0  0  0
125121  1  0  0  0
  8  2  1  0  0  0
 49 45  1  0  0  0
 36 32  1  0  0  0
 95 97  1  0  0  0
 95 98  1  0  0  0
 93 94  1  0  0  0
107108  1  0  0  0
107109  1  0  0  0
 88 89  1  0  0  0
114115  1  0  0  0
114116  1  0  0  0
 83 84  1  0  0  0
 77 78  1  0  0  0
118119  1  0  0  0
 72 73  1  0  0  0
125126  1  0  0  0
 67 68  1  0  0  0
  6  9  1  0  0  0
 12 13  1  0  0  0
 62 63  1  0  0  0
 62 64  1  0  0  0
 17 18  1  0  0  0
 55 56  1  0  0  0
 55 57  1  0  0  0
 22 23  1  0  0  0
 49 50  1  0  0  0
 27 28  1  0  0  0
 42 43  1  0  0  0
 38 40  1  0  0  0
100102  1  0  0  0
M  END
> <minimizedAffinity>
-6.66323

$$$$
