


126129  0  0  0  0  0  0  0  0999 V2000
    4.1916   -2.5164   27.6667 C   0  0  0  0  0  0  0  0  0  0  0  0
    5.1412   -3.1755   26.6932 C   0  0  0  0  0  0  0  0  0  0  0  0
    5.3119   -4.5716   26.6817 C   0  0  0  0  0  0  0  0  0  0  0  0
    6.1553   -5.1726   25.7442 C   0  0  0  0  0  0  0  0  0  0  0  0
    6.8550   -4.3878   24.8190 C   0  0  0  0  0  0  0  0  0  0  0  0
    7.6922   -4.9974   23.8855 O   0  0  0  0  0  0  0  0  0  0  0  0
    6.7033   -2.9961   24.8342 C   0  0  0  0  0  0  0  0  0  0  0  0
    5.8438   -2.3961   25.7604 C   0  0  0  0  0  0  0  0  0  0  0  0
    8.2424   -4.4477   23.2359 H   0  0  0  0  0  0  0  0  0  0  0  0
    4.8886   -2.2096   28.9664 C   0  0  0  0  0  0  0  0  0  0  0  0
    4.4175   -2.6243   30.0580 O   0  0  0  0  0  0  0  0  0  0  0  0
    6.0742   -1.4027   28.9660 N   0  0  0  0  0  0  0  0  0  0  0  0
    6.7778   -1.6009   28.2176 H   0  0  0  0  0  0  0  0  0  0  0  0
    6.2021   -0.1127   29.6636 C   0  0  0  0  0  0  0  0  0  0  0  0
    6.6671    0.9360   28.6810 C   0  0  0  0  0  0  0  0  0  0  0  0
    7.3122    1.9476   29.0800 O   0  0  0  0  0  0  0  0  0  0  0  0
    6.3602    0.7839   27.2882 N   0  0  0  0  0  0  0  0  0  0  0  0
    6.0206   -0.1490   26.9598 H   0  0  0  0  0  0  0  0  0  0  0  0
    6.1364    1.9427   26.4162 C   0  0  0  0  0  0  0  0  0  0  0  0
    6.8666    1.7484   25.1091 C   0  0  0  0  0  0  0  0  0  0  0  0
    6.9919    0.5878   24.6362 O   0  0  0  0  0  0  0  0  0  0  0  0
    7.3583    2.8843   24.3742 N   0  0  0  0  0  0  0  0  0  0  0  0
    7.1629    3.8334   24.7726 H   0  0  0  0  0  0  0  0  0  0  0  0
    7.8439    2.7647   22.9893 C   0  0  0  0  0  0  0  0  0  0  0  0
    8.9951    3.7099   22.7104 C   0  0  0  0  0  0  0  0  0  0  0  0
    8.7941    4.9546   22.7407 O   0  0  0  0  0  0  0  0  0  0  0  0
   10.2823    3.2353   22.2711 N   0  0  0  0  0  0  0  0  0  0  0  0
   10.7520    3.8059   21.5284 H   0  0  0  0  0  0  0  0  0  0  0  0
   11.1322    2.2569   22.9742 C   0  0  0  0  0  0  0  0  0  0  0  0
   11.1223    0.9123   22.2823 C   0  0  0  0  0  0  0  0  0  0  0  0
   10.2505    0.6593   21.4143 O   0  0  0  0  0  0  0  0  0  0  0  0
   12.0121   -0.1371   22.6869 N   0  0  0  0  0  0  0  0  0  0  0  0
   13.2940   -0.3733   22.0459 C   0  0  0  0  0  0  0  0  0  0  0  0
   13.6941   -1.7881   22.4379 C   0  0  0  0  0  0  0  0  0  0  0  0
   12.8435   -2.1312   23.6589 C   0  0  0  0  0  0  0  0  0  0  0  0
   11.6161   -1.2222   23.5754 C   0  0  0  0  0  0  0  0  0  0  0  0
   10.4274   -1.9633   23.0275 C   0  0  0  0  0  0  0  0  0  0  0  0
   10.2843   -2.1134   21.6555 O   0  0  0  0  0  0  0  0  0  0  0  0
    9.5485   -2.4189   23.8075 O   0  0  0  0  0  0  0  0  0  0  0  0
    9.4837   -2.5959   21.2658 H   0  0  0  0  0  0  0  0  0  0  0  0
   12.5546    2.8109   23.1947 C   0  0  0  0  0  0  0  0  0  0  0  0
   12.5846    4.6355   23.2121 S   0  0  0  0  0  0  0  0  0  0  0  0
   11.6823    4.7720   24.2773 H   0  0  0  0  0  0  0  0  0  0  0  0
    6.6791    3.0079   22.0053 C   0  0  0  0  0  0  0  0  0  0  0  0
    6.4362    1.8335   21.0926 C   0  0  0  0  0  0  0  0  0  0  0  0
    7.1518    1.5128   19.9617 C   0  0  0  0  0  0  0  0  0  0  0  0
    6.6131    0.4169   19.3931 N   0  0  0  0  0  0  0  0  0  0  0  0
    5.5700    0.1040   20.1914 C   0  0  0  0  0  0  0  0  0  0  0  0
    5.4362    0.9453   21.2328 N   0  0  0  0  0  0  0  0  0  0  0  0
    4.6879    0.9360   21.9610 H   0  0  0  0  0  0  0  0  0  0  0  0
    4.6264    2.1233   26.1524 C   0  0  0  0  0  0  0  0  0  0  0  0
    4.3274    2.5059   24.6928 C   0  0  0  0  0  0  0  0  0  0  0  0
    3.9596    3.9593   24.5756 C   0  0  0  0  0  0  0  0  0  0  0  0
    4.8656    4.8331   24.5182 O   0  0  0  0  0  0  0  0  0  0  0  0
    2.5880    4.3585   24.5386 N   0  0  0  0  0  0  0  0  0  0  0  0
    2.3344    5.3639   24.4130 H   0  0  0  0  0  0  0  0  0  0  0  0
    1.8196    3.6609   24.6467 H   0  0  0  0  0  0  0  0  0  0  0  0
    7.0981   -0.1829   30.9264 C   0  0  0  0  0  0  0  0  0  0  0  0
    6.3178    0.1104   32.2195 C   0  0  0  0  0  0  0  0  0  0  0  0
    5.8952    1.5853   32.3451 C   0  0  0  0  0  0  0  0  0  0  0  0
    4.3754    1.8367   32.2551 C   0  0  0  0  0  0  0  0  0  0  0  0
    4.0000    2.5962   31.0600 N   0  0  0  0  0  0  0  0  0  0  0  0
    4.1229    1.9849   30.2179 H   0  0  0  0  0  0  0  0  0  0  0  0
    4.6373    3.4127   30.9589 H   0  0  0  0  0  0  0  0  0  0  0  0
    2.2013   -1.1887   26.9032 C   0  0  0  0  0  0  0  0  0  0  0  0
    1.5554   -2.1274   26.3656 O   0  0  0  0  0  0  0  0  0  0  0  0
    3.6157   -1.3032   27.0782 N   0  0  0  0  0  0  0  0  0  0  0  0
    4.2110   -0.4523   26.9474 H   0  0  0  0  0  0  0  0  0  0  0  0
    1.4720   -0.0491   27.5526 C   0  0  0  0  0  0  0  0  0  0  0  0
    0.6879    1.0897   25.4120 C   0  0  0  0  0  0  0  0  0  0  0  0
    1.1667    1.6471   24.3817 O   0  0  0  0  0  0  0  0  0  0  0  0
    1.4689    1.0804   26.6192 N   0  0  0  0  0  0  0  0  0  0  0  0
    2.2777    1.7379   26.6507 H   0  0  0  0  0  0  0  0  0  0  0  0
   -0.7220    0.5381   25.3900 C   0  0  0  0  0  0  0  0  0  0  0  0
   -1.8626   -1.3446   24.1357 C   0  0  0  0  0  0  0  0  0  0  0  0
   -2.0139   -2.0065   25.1996 O   0  0  0  0  0  0  0  0  0  0  0  0
   -1.0287   -0.1741   24.1410 N   0  0  0  0  0  0  0  0  0  0  0  0
   -0.6841    0.1821   23.2235 H   0  0  0  0  0  0  0  0  0  0  0  0
   -2.5641   -1.7547   22.8626 C   0  0  0  0  0  0  0  0  0  0  0  0
   -3.8096   -0.8909   22.6673 C   0  0  0  0  0  0  0  0  0  0  0  0
   -2.0254   -4.2156   22.4385 C   0  0  0  0  0  0  0  0  0  0  0  0
   -0.9256   -3.9154   21.8999 O   0  0  0  0  0  0  0  0  0  0  0  0
   -2.9308   -3.1817   22.8623 N   0  0  0  0  0  0  0  0  0  0  0  0
   -3.8604   -3.4904   23.2177 H   0  0  0  0  0  0  0  0  0  0  0  0
   -2.3840   -5.6683   22.6331 C   0  0  0  0  0  0  0  0  0  0  0  0
   -3.1214   -7.0257   20.6206 C   0  0  0  0  0  0  0  0  0  0  0  0
   -3.7181   -8.1380   20.6537 O   0  0  0  0  0  0  0  0  0  0  0  0
   -3.3951   -6.0658   21.6480 N   0  0  0  0  0  0  0  0  0  0  0  0
   -4.3906   -5.9908   21.9399 H   0  0  0  0  0  0  0  0  0  0  0  0
   -2.2662   -6.7005   19.4072 C   0  0  0  0  0  0  0  0  0  0  0  0
    0.0892   -7.3321   20.0157 C   0  0  0  0  0  0  0  0  0  0  0  0
    0.2953   -8.2236   19.1466 O   0  0  0  0  0  0  0  0  0  0  0  0
   -0.8983   -6.3249   19.7715 N   0  0  0  0  0  0  0  0  0  0  0  0
   -0.6110   -5.3240   19.8170 H   0  0  0  0  0  0  0  0  0  0  0  0
    1.0616   -6.0185   21.8346 N   0  0  0  0  0  0  0  0  0  0  0  0
    0.8117   -7.3810   21.3454 C   0  0  0  0  0  0  0  0  0  0  0  0
    1.6725   -6.0802   22.6827 H   0  0  0  0  0  0  0  0  0  0  0  0
    1.6231   -5.5058   21.1178 H   0  0  0  0  0  0  0  0  0  0  0  0
    0.0390   -8.2215   22.3860 C   0  0  0  0  0  0  0  0  0  0  0  0
   -0.8811   -9.0467   21.7095 O   0  0  0  0  0  0  0  0  0  0  0  0
    0.9653   -9.0928   23.2460 C   0  0  0  0  0  0  0  0  0  0  0  0
   -1.5255   -9.3746   22.3874 H   0  0  0  0  0  0  0  0  0  0  0  0
   -2.9188   -5.6172   18.5309 C   0  0  0  0  0  0  0  0  0  0  0  0
   -2.2757   -4.2261   18.6729 C   0  0  0  0  0  0  0  0  0  0  0  0
   -3.2055   -3.2296   19.3182 C   0  0  0  0  0  0  0  0  0  0  0  0
   -4.2460   -3.6027   19.9203 O   0  0  0  0  0  0  0  0  0  0  0  0
   -2.8959   -1.8384   19.2613 N   0  0  0  0  0  0  0  0  0  0  0  0
   -3.5204   -1.1411   19.7193 H   0  0  0  0  0  0  0  0  0  0  0  0
   -2.0154   -1.5062   18.8032 H   0  0  0  0  0  0  0  0  0  0  0  0
   -2.8217   -6.0570   24.0772 C   0  0  0  0  0  0  0  0  0  0  0  0
   -1.7217   -6.4781   25.0741 C   0  0  0  0  0  0  0  0  0  0  0  0
   -0.6013   -5.4899   25.3042 C   0  0  0  0  0  0  0  0  0  0  0  0
    0.4994   -5.6939   24.7333 O   0  0  0  0  0  0  0  0  0  0  0  0
   -0.7220   -4.3611   26.1762 N   0  0  0  0  0  0  0  0  0  0  0  0
   -1.5312   -4.2283   26.8170 H   0  0  0  0  0  0  0  0  0  0  0  0
    0.0782   -3.6919   26.2717 H   0  0  0  0  0  0  0  0  0  0  0  0
   -1.7224    1.6903   25.6183 C   0  0  0  0  0  0  0  0  0  0  0  0
   -1.0609    2.8482   26.0631 O   0  0  0  0  0  0  0  0  0  0  0  0
   -0.7722    3.3393   25.2464 H   0  0  0  0  0  0  0  0  0  0  0  0
    2.1089    0.3500   28.8965 C   0  0  0  0  0  0  0  0  0  0  0  0
    1.5511   -0.4855   30.0138 C   0  0  0  0  0  0  0  0  0  0  0  0
    0.2425   -0.9160   30.1333 C   0  0  0  0  0  0  0  0  0  0  0  0
    0.1042   -1.5856   31.2963 N   0  0  0  0  0  0  0  0  0  0  0  0
    1.3364   -1.5462   31.8546 C   0  0  0  0  0  0  0  0  0  0  0  0
    2.2369   -0.8917   31.0926 N   0  0  0  0  0  0  0  0  0  0  0  0
    3.2383   -0.7122   31.3216 H   0  0  0  0  0  0  0  0  0  0  0  0
 95 96  1  0  0  0
 96 91  1  0  0  0
 91 92  2  0  0  0
 91 93  1  0  0  0
 93 90  1  0  0  0
 90103  1  0  0  0
103104  1  0  0  0
104105  1  0  0  0
105106  2  0  0  0
105107  1  0  0  0
 90 86  1  0  0  0
 86 87  2  0  0  0
 86 88  1  0  0  0
 88 85  1  0  0  0
 85110  1  0  0  0
110111  1  0  0  0
111112  1  0  0  0
112113  2  0  0  0
112114  1  0  0  0
 85 81  1  0  0  0
 81 82  2  0  0  0
 81 83  1  0  0  0
 83 79  1  0  0  0
 79 80  1  0  0  0
 79 75  1  0  0  0
 75 76  2  0  0  0
 75 77  1  0  0  0
 77 74  1  0  0  0
 74117  1  0  0  0
117118  1  0  0  0
 74 70  1  0  0  0
 70 71  2  0  0  0
 70 72  1  0  0  0
 72 69  1  0  0  0
 69120  1  0  0  0
120121  1  0  0  0
121122  2  0  0  0
122123  1  0  0  0
123124  2  0  0  0
124125  1  0  0  0
 69 65  1  0  0  0
 65 66  2  0  0  0
 65 67  1  0  0  0
 67  1  1  0  0  0
  1  2  1  0  0  0
  2  3  2  0  0  0
  3  4  1  0  0  0
  4  5  2  0  0  0
  5  6  1  0  0  0
  5  7  1  0  0  0
  7  8  2  0  0  0
  1 10  1  0  0  0
 10 11  2  0  0  0
 10 12  1  0  0  0
 12 14  1  0  0  0
 14 58  1  0  0  0
 58 59  1  0  0  0
 59 60  1  0  0  0
 60 61  1  0  0  0
 61 62  1  0  0  0
 14 15  1  0  0  0
 15 16  2  0  0  0
 15 17  1  0  0  0
 17 19  1  0  0  0
 19 51  1  0  0  0
 51 52  1  0  0  0
 52 53  1  0  0  0
 53 54  2  0  0  0
 53 55  1  0  0  0
 19 20  1  0  0  0
 20 21  2  0  0  0
 20 22  1  0  0  0
 22 24  1  0  0  0
 24 44  1  0  0  0
 44 45  1  0  0  0
 45 46  2  0  0  0
 46 47  1  0  0  0
 47 48  2  0  0  0
 48 49  1  0  0  0
 24 25  1  0  0  0
 25 26  2  0  0  0
 25 27  1  0  0  0
 27 29  1  0  0  0
 29 41  1  0  0  0
 41 42  1  0  0  0
 29 30  1  0  0  0
 30 31  2  0  0  0
 30 32  1  0  0  0
 32 33  1  0  0  0
 33 34  1  0  0  0
 34 35  1  0  0  0
 35 36  1  0  0  0
 36 37  1  0  0  0
 37 38  1  0  0  0
 37 39  2  0  0  0
 96 99  1  0  0  0
 99100  1  0  0  0
 99101  1  0  0  0
125121  1  0  0  0
  8  2  1  0  0  0
 49 45  1  0  0  0
 36 32  1  0  0  0
 95 97  1  0  0  0
 95 98  1  0  0  0
 93 94  1  0  0  0
107108  1  0  0  0
107109  1  0  0  0
 88 89  1  0  0  0
114115  1  0  0  0
114116  1  0  0  0
 83 84  1  0  0  0
 77 78  1  0  0  0
118119  1  0  0  0
 72 73  1  0  0  0
125126  1  0  0  0
 67 68  1  0  0  0
  6  9  1  0  0  0
 12 13  1  0  0  0
 62 63  1  0  0  0
 62 64  1  0  0  0
 17 18  1  0  0  0
 55 56  1  0  0  0
 55 57  1  0  0  0
 22 23  1  0  0  0
 49 50  1  0  0  0
 27 28  1  0  0  0
 42 43  1  0  0  0
 38 40  1  0  0  0
100102  1  0  0  0
M  END
> <minimizedAffinity>
-6.78943

$$$$



126129  0  0  0  0  0  0  0  0999 V2000
    5.1079   -1.7471   27.6616 C   0  0  0  0  0  0  0  0  0  0  0  0
    5.9877   -1.1984   28.7609 C   0  0  0  0  0  0  0  0  0  0  0  0
    7.3829   -1.1208   28.6002 C   0  0  0  0  0  0  0  0  0  0  0  0
    8.1801   -0.5661   29.6042 C   0  0  0  0  0  0  0  0  0  0  0  0
    7.5987   -0.0999   30.7901 C   0  0  0  0  0  0  0  0  0  0  0  0
    8.4027    0.4548   31.7851 O   0  0  0  0  0  0  0  0  0  0  0  0
    6.2125   -0.1883   30.9649 C   0  0  0  0  0  0  0  0  0  0  0  0
    5.4124   -0.7260   29.9513 C   0  0  0  0  0  0  0  0  0  0  0  0
    8.0103    0.7576   32.6690 H   0  0  0  0  0  0  0  0  0  0  0  0
    5.6906   -3.0156   27.0956 C   0  0  0  0  0  0  0  0  0  0  0  0
    5.8971   -4.0113   27.8382 O   0  0  0  0  0  0  0  0  0  0  0  0
    6.0536   -3.0766   25.7095 N   0  0  0  0  0  0  0  0  0  0  0  0
    5.3821   -2.6530   25.0283 H   0  0  0  0  0  0  0  0  0  0  0  0
    7.4185   -3.3273   25.2178 C   0  0  0  0  0  0  0  0  0  0  0  0
    7.8115   -2.2217   24.2668 C   0  0  0  0  0  0  0  0  0  0  0  0
    6.9342   -1.6253   23.5789 O   0  0  0  0  0  0  0  0  0  0  0  0
    9.1933   -1.8591   24.1381 N   0  0  0  0  0  0  0  0  0  0  0  0
    9.8621   -2.2110   24.8609 H   0  0  0  0  0  0  0  0  0  0  0  0
    9.7468   -1.3649   22.8722 C   0  0  0  0  0  0  0  0  0  0  0  0
    9.5984    0.1358   22.7998 C   0  0  0  0  0  0  0  0  0  0  0  0
   10.5884    0.8410   22.4696 O   0  0  0  0  0  0  0  0  0  0  0  0
    8.3206    0.7533   23.0408 N   0  0  0  0  0  0  0  0  0  0  0  0
    7.5113    0.1178   23.2381 H   0  0  0  0  0  0  0  0  0  0  0  0
    8.0713    2.1719   22.7350 C   0  0  0  0  0  0  0  0  0  0  0  0
    6.8952    2.7206   23.5174 C   0  0  0  0  0  0  0  0  0  0  0  0
    5.9128    1.9694   23.7646 O   0  0  0  0  0  0  0  0  0  0  0  0
    6.7959    4.1143   23.8679 N   0  0  0  0  0  0  0  0  0  0  0  0
    5.8434    4.5419   23.7812 H   0  0  0  0  0  0  0  0  0  0  0  0
    7.7888    4.8886   24.6352 C   0  0  0  0  0  0  0  0  0  0  0  0
    8.6596    5.7297   23.7292 C   0  0  0  0  0  0  0  0  0  0  0  0
    8.5768    5.6013   22.4826 O   0  0  0  0  0  0  0  0  0  0  0  0
    9.6778    6.5863   24.2644 N   0  0  0  0  0  0  0  0  0  0  0  0
    9.4579    7.9962   24.5361 C   0  0  0  0  0  0  0  0  0  0  0  0
   10.8442    8.6138   24.6460 C   0  0  0  0  0  0  0  0  0  0  0  0
   11.7959    7.4444   24.8889 C   0  0  0  0  0  0  0  0  0  0  0  0
   11.0842    6.2106   24.3311 C   0  0  0  0  0  0  0  0  0  0  0  0
   11.6122    5.8476   22.9703 C   0  0  0  0  0  0  0  0  0  0  0  0
   11.4129    4.5668   22.4755 O   0  0  0  0  0  0  0  0  0  0  0  0
   12.2603    6.6916   22.2949 O   0  0  0  0  0  0  0  0  0  0  0  0
   11.7733    4.2978   21.5681 H   0  0  0  0  0  0  0  0  0  0  0  0
    7.1131    5.7085   25.7532 C   0  0  0  0  0  0  0  0  0  0  0  0
    5.7983    6.7964   25.1066 S   0  0  0  0  0  0  0  0  0  0  0  0
    5.0407    5.7628   24.5364 H   0  0  0  0  0  0  0  0  0  0  0  0
    7.8544    2.3477   21.2164 C   0  0  0  0  0  0  0  0  0  0  0  0
    6.7706    1.4497   20.6776 C   0  0  0  0  0  0  0  0  0  0  0  0
    5.4610    1.7986   20.4383 C   0  0  0  0  0  0  0  0  0  0  0  0
    4.7893    0.7185   19.9948 N   0  0  0  0  0  0  0  0  0  0  0  0
    5.7106   -0.2686   19.9868 C   0  0  0  0  0  0  0  0  0  0  0  0
    6.9242    0.1438   20.3958 N   0  0  0  0  0  0  0  0  0  0  0  0
    7.7831   -0.4382   20.5141 H   0  0  0  0  0  0  0  0  0  0  0  0
   11.2369   -1.7513   22.7588 C   0  0  0  0  0  0  0  0  0  0  0  0
   11.8561   -2.1073   24.1212 C   0  0  0  0  0  0  0  0  0  0  0  0
   13.2955   -1.6783   24.1934 C   0  0  0  0  0  0  0  0  0  0  0  0
   13.6585   -0.6043   23.6436 O   0  0  0  0  0  0  0  0  0  0  0  0
   14.2584   -2.4856   24.8740 N   0  0  0  0  0  0  0  0  0  0  0  0
   15.2486   -2.1649   24.9611 H   0  0  0  0  0  0  0  0  0  0  0  0
   13.9961   -3.4087   25.2837 H   0  0  0  0  0  0  0  0  0  0  0  0
    7.5996   -4.7366   24.5985 C   0  0  0  0  0  0  0  0  0  0  0  0
    6.5045   -5.0743   23.5722 C   0  0  0  0  0  0  0  0  0  0  0  0
    7.0375   -5.8621   22.3618 C   0  0  0  0  0  0  0  0  0  0  0  0
    5.9658   -6.2757   21.3314 C   0  0  0  0  0  0  0  0  0  0  0  0
    4.6188   -6.3179   21.9058 N   0  0  0  0  0  0  0  0  0  0  0  0
    4.3022   -5.3379   22.0988 H   0  0  0  0  0  0  0  0  0  0  0  0
    4.6488   -6.8291   22.8119 H   0  0  0  0  0  0  0  0  0  0  0  0
    2.6749   -2.2071   27.2418 C   0  0  0  0  0  0  0  0  0  0  0  0
    2.5196   -1.4529   26.2445 O   0  0  0  0  0  0  0  0  0  0  0  0
    3.7462   -1.9683   28.1582 N   0  0  0  0  0  0  0  0  0  0  0  0
    3.5815   -2.1274   29.1796 H   0  0  0  0  0  0  0  0  0  0  0  0
    1.8800   -3.4747   27.3574 C   0  0  0  0  0  0  0  0  0  0  0  0
    0.1387   -3.8035   25.5261 C   0  0  0  0  0  0  0  0  0  0  0  0
   -0.6056   -3.1192   24.7650 O   0  0  0  0  0  0  0  0  0  0  0  0
    0.5549   -3.2353   26.7796 N   0  0  0  0  0  0  0  0  0  0  0  0
    0.0300   -2.3937   27.1018 H   0  0  0  0  0  0  0  0  0  0  0  0
    0.4924   -5.2294   25.1594 C   0  0  0  0  0  0  0  0  0  0  0  0
    0.7175   -6.1392   22.8056 C   0  0  0  0  0  0  0  0  0  0  0  0
    1.9476   -5.8581   22.7788 O   0  0  0  0  0  0  0  0  0  0  0  0
   -0.0998   -5.6453   23.8796 N   0  0  0  0  0  0  0  0  0  0  0  0
   -1.1330   -5.6338   23.7394 H   0  0  0  0  0  0  0  0  0  0  0  0
    0.0981   -7.0059   21.7349 C   0  0  0  0  0  0  0  0  0  0  0  0
    1.0889   -8.0952   21.3262 C   0  0  0  0  0  0  0  0  0  0  0  0
   -1.5980   -6.3884   19.9272 C   0  0  0  0  0  0  0  0  0  0  0  0
   -2.3629   -7.3271   20.2787 O   0  0  0  0  0  0  0  0  0  0  0  0
   -0.3143   -6.2260   20.5550 N   0  0  0  0  0  0  0  0  0  0  0  0
    0.3091   -5.4894   20.1618 H   0  0  0  0  0  0  0  0  0  0  0  0
   -2.0401   -5.4384   18.8414 C   0  0  0  0  0  0  0  0  0  0  0  0
   -2.1498   -3.5436   20.5247 C   0  0  0  0  0  0  0  0  0  0  0  0
   -1.2511   -3.2371   21.3571 O   0  0  0  0  0  0  0  0  0  0  0  0
   -1.7588   -4.0572   19.2460 N   0  0  0  0  0  0  0  0  0  0  0  0
   -0.9328   -3.5990   18.8106 H   0  0  0  0  0  0  0  0  0  0  0  0
   -3.5921   -3.2024   20.8606 C   0  0  0  0  0  0  0  0  0  0  0  0
   -3.0922   -0.7395   20.8944 C   0  0  0  0  0  0  0  0  0  0  0  0
   -3.2999   -0.4696   19.6793 O   0  0  0  0  0  0  0  0  0  0  0  0
   -3.7246   -1.8821   21.4805 N   0  0  0  0  0  0  0  0  0  0  0  0
   -4.3133   -1.7450   22.3297 H   0  0  0  0  0  0  0  0  0  0  0  0
   -1.3046    0.9269   20.8084 N   0  0  0  0  0  0  0  0  0  0  0  0
   -2.1090    0.0820   21.7013 C   0  0  0  0  0  0  0  0  0  0  0  0
   -0.5515    1.3819   21.3760 H   0  0  0  0  0  0  0  0  0  0  0  0
   -0.8105    0.3110   20.1240 H   0  0  0  0  0  0  0  0  0  0  0  0
   -2.8198    0.9226   22.7852 C   0  0  0  0  0  0  0  0  0  0  0  0
   -4.1807    1.0471   22.4426 O   0  0  0  0  0  0  0  0  0  0  0  0
   -2.7034    0.3012   24.1843 C   0  0  0  0  0  0  0  0  0  0  0  0
   -4.5496    1.7832   22.9944 H   0  0  0  0  0  0  0  0  0  0  0  0
   -4.2394   -4.2887   21.7370 C   0  0  0  0  0  0  0  0  0  0  0  0
   -4.3603   -3.9045   23.2226 C   0  0  0  0  0  0  0  0  0  0  0  0
   -3.5260   -4.7913   24.1121 C   0  0  0  0  0  0  0  0  0  0  0  0
   -2.9060   -5.7835   23.6479 O   0  0  0  0  0  0  0  0  0  0  0  0
   -3.4219   -4.4950   25.5035 N   0  0  0  0  0  0  0  0  0  0  0  0
   -2.8335   -5.0890   26.1255 H   0  0  0  0  0  0  0  0  0  0  0  0
   -3.8935   -3.6518   25.9060 H   0  0  0  0  0  0  0  0  0  0  0  0
   -3.5197   -5.5995   18.3797 C   0  0  0  0  0  0  0  0  0  0  0  0
   -3.8407   -5.3487   16.8914 C   0  0  0  0  0  0  0  0  0  0  0  0
   -3.7174   -3.9237   16.4023 C   0  0  0  0  0  0  0  0  0  0  0  0
   -3.8705   -2.9934   17.2331 O   0  0  0  0  0  0  0  0  0  0  0  0
   -3.4804   -3.5860   15.0315 N   0  0  0  0  0  0  0  0  0  0  0  0
   -3.5231   -4.2867   14.2632 H   0  0  0  0  0  0  0  0  0  0  0  0
   -3.3722   -2.5810   14.7565 H   0  0  0  0  0  0  0  0  0  0  0  0
    0.0466   -6.1723   26.2964 C   0  0  0  0  0  0  0  0  0  0  0  0
   -1.3121   -6.5083   26.1656 O   0  0  0  0  0  0  0  0  0  0  0  0
   -1.3494   -7.3053   25.5697 H   0  0  0  0  0  0  0  0  0  0  0  0
    1.7653   -3.9505   28.8173 C   0  0  0  0  0  0  0  0  0  0  0  0
    2.4964   -5.2492   29.0082 C   0  0  0  0  0  0  0  0  0  0  0  0
    2.3059   -6.1461   30.0433 C   0  0  0  0  0  0  0  0  0  0  0  0
    3.1857   -7.1606   29.9137 N   0  0  0  0  0  0  0  0  0  0  0  0
    3.8893   -6.8542   28.7990 C   0  0  0  0  0  0  0  0  0  0  0  0
    3.4854   -5.7027   28.2238 N   0  0  0  0  0  0  0  0  0  0  0  0
    3.8890   -5.2517   27.3746 H   0  0  0  0  0  0  0  0  0  0  0  0
 95 96  1  0  0  0
 96 91  1  0  0  0
 91 92  2  0  0  0
 91 93  1  0  0  0
 93 90  1  0  0  0
 90103  1  0  0  0
103104  1  0  0  0
104105  1  0  0  0
105106  2  0  0  0
105107  1  0  0  0
 90 86  1  0  0  0
 86 87  2  0  0  0
 86 88  1  0  0  0
 88 85  1  0  0  0
 85110  1  0  0  0
110111  1  0  0  0
111112  1  0  0  0
112113  2  0  0  0
112114  1  0  0  0
 85 81  1  0  0  0
 81 82  2  0  0  0
 81 83  1  0  0  0
 83 79  1  0  0  0
 79 80  1  0  0  0
 79 75  1  0  0  0
 75 76  2  0  0  0
 75 77  1  0  0  0
 77 74  1  0  0  0
 74117  1  0  0  0
117118  1  0  0  0
 74 70  1  0  0  0
 70 71  2  0  0  0
 70 72  1  0  0  0
 72 69  1  0  0  0
 69120  1  0  0  0
120121  1  0  0  0
121122  2  0  0  0
122123  1  0  0  0
123124  2  0  0  0
124125  1  0  0  0
 69 65  1  0  0  0
 65 66  2  0  0  0
 65 67  1  0  0  0
 67  1  1  0  0  0
  1  2  1  0  0  0
  2  3  2  0  0  0
  3  4  1  0  0  0
  4  5  2  0  0  0
  5  6  1  0  0  0
  5  7  1  0  0  0
  7  8  2  0  0  0
  1 10  1  0  0  0
 10 11  2  0  0  0
 10 12  1  0  0  0
 12 14  1  0  0  0
 14 58  1  0  0  0
 58 59  1  0  0  0
 59 60  1  0  0  0
 60 61  1  0  0  0
 61 62  1  0  0  0
 14 15  1  0  0  0
 15 16  2  0  0  0
 15 17  1  0  0  0
 17 19  1  0  0  0
 19 51  1  0  0  0
 51 52  1  0  0  0
 52 53  1  0  0  0
 53 54  2  0  0  0
 53 55  1  0  0  0
 19 20  1  0  0  0
 20 21  2  0  0  0
 20 22  1  0  0  0
 22 24  1  0  0  0
 24 44  1  0  0  0
 44 45  1  0  0  0
 45 46  2  0  0  0
 46 47  1  0  0  0
 47 48  2  0  0  0
 48 49  1  0  0  0
 24 25  1  0  0  0
 25 26  2  0  0  0
 25 27  1  0  0  0
 27 29  1  0  0  0
 29 41  1  0  0  0
 41 42  1  0  0  0
 29 30  1  0  0  0
 30 31  2  0  0  0
 30 32  1  0  0  0
 32 33  1  0  0  0
 33 34  1  0  0  0
 34 35  1  0  0  0
 35 36  1  0  0  0
 36 37  1  0  0  0
 37 38  1  0  0  0
 37 39  2  0  0  0
 96 99  1  0  0  0
 99100  1  0  0  0
 99101  1  0  0  0
125121  1  0  0  0
  8  2  1  0  0  0
 49 45  1  0  0  0
 36 32  1  0  0  0
 95 97  1  0  0  0
 95 98  1  0  0  0
 93 94  1  0  0  0
107108  1  0  0  0
107109  1  0  0  0
 88 89  1  0  0  0
114115  1  0  0  0
114116  1  0  0  0
 83 84  1  0  0  0
 77 78  1  0  0  0
118119  1  0  0  0
 72 73  1  0  0  0
125126  1  0  0  0
 67 68  1  0  0  0
  6  9  1  0  0  0
 12 13  1  0  0  0
 62 63  1  0  0  0
 62 64  1  0  0  0
 17 18  1  0  0  0
 55 56  1  0  0  0
 55 57  1  0  0  0
 22 23  1  0  0  0
 49 50  1  0  0  0
 27 28  1  0  0  0
 42 43  1  0  0  0
 38 40  1  0  0  0
100102  1  0  0  0
M  END
> <minimizedAffinity>
-6.75801

$$$$



126129  0  0  0  0  0  0  0  0999 V2000
    5.9511   -0.3556   24.9205 C   0  0  0  0  0  0  0  0  0  0  0  0
    6.0333   -0.4357   26.4273 C   0  0  0  0  0  0  0  0  0  0  0  0
    7.2758   -0.4164   27.0863 C   0  0  0  0  0  0  0  0  0  0  0  0
    7.3361   -0.4413   28.4817 C   0  0  0  0  0  0  0  0  0  0  0  0
    6.1590   -0.5061   29.2378 C   0  0  0  0  0  0  0  0  0  0  0  0
    6.2296   -0.5277   30.6302 O   0  0  0  0  0  0  0  0  0  0  0  0
    4.9187   -0.5422   28.5894 C   0  0  0  0  0  0  0  0  0  0  0  0
    4.8579   -0.4976   27.1927 C   0  0  0  0  0  0  0  0  0  0  0  0
    5.3945   -0.6193   31.1968 H   0  0  0  0  0  0  0  0  0  0  0  0
    7.0390    0.5314   24.3737 C   0  0  0  0  0  0  0  0  0  0  0  0
    7.1062    1.7427   24.7110 O   0  0  0  0  0  0  0  0  0  0  0  0
    7.9800    0.0047   23.4284 N   0  0  0  0  0  0  0  0  0  0  0  0
    8.3582   -0.9510   23.6237 H   0  0  0  0  0  0  0  0  0  0  0  0
    8.1556    0.5138   22.0582 C   0  0  0  0  0  0  0  0  0  0  0  0
    9.1042    1.6888   22.0859 C   0  0  0  0  0  0  0  0  0  0  0  0
    9.0185    2.6029   21.2165 O   0  0  0  0  0  0  0  0  0  0  0  0
   10.1156    1.7560   23.1007 N   0  0  0  0  0  0  0  0  0  0  0  0
   10.0312    1.1124   23.9205 H   0  0  0  0  0  0  0  0  0  0  0  0
   11.4175    2.3856   22.8521 C   0  0  0  0  0  0  0  0  0  0  0  0
   11.5151    3.6807   23.6219 C   0  0  0  0  0  0  0  0  0  0  0  0
   12.5983    4.3234   23.6182 O   0  0  0  0  0  0  0  0  0  0  0  0
   10.3623    4.2128   24.3003 N   0  0  0  0  0  0  0  0  0  0  0  0
    9.4653    3.6789   24.2107 H   0  0  0  0  0  0  0  0  0  0  0  0
   10.3409    5.5817   24.8423 C   0  0  0  0  0  0  0  0  0  0  0  0
   10.3599    6.6250   23.7435 C   0  0  0  0  0  0  0  0  0  0  0  0
   10.0844    6.2828   22.5612 O   0  0  0  0  0  0  0  0  0  0  0  0
   10.8209    7.9698   23.9765 N   0  0  0  0  0  0  0  0  0  0  0  0
   11.4051    8.3921   23.2162 H   0  0  0  0  0  0  0  0  0  0  0  0
   10.2916    8.9055   24.9855 C   0  0  0  0  0  0  0  0  0  0  0  0
   11.3971    9.7053   25.6372 C   0  0  0  0  0  0  0  0  0  0  0  0
   12.5035    9.8356   25.0572 O   0  0  0  0  0  0  0  0  0  0  0  0
   11.2571   10.2161   26.9700 N   0  0  0  0  0  0  0  0  0  0  0  0
   10.7931   11.5633   27.2522 C   0  0  0  0  0  0  0  0  0  0  0  0
   11.2123   11.8494   28.6867 C   0  0  0  0  0  0  0  0  0  0  0  0
   11.4918   10.4845   29.3121 C   0  0  0  0  0  0  0  0  0  0  0  0
   11.8131    9.5527   28.1423 C   0  0  0  0  0  0  0  0  0  0  0  0
   13.2970    9.3535   27.9982 C   0  0  0  0  0  0  0  0  0  0  0  0
   14.1399   10.4556   27.9865 O   0  0  0  0  0  0  0  0  0  0  0  0
   13.7713    8.1944   27.8567 O   0  0  0  0  0  0  0  0  0  0  0  0
   15.1403   10.3441   27.8755 H   0  0  0  0  0  0  0  0  0  0  0  0
    9.1756    9.7906   24.3938 C   0  0  0  0  0  0  0  0  0  0  0  0
    7.6929    9.8270   25.4571 S   0  0  0  0  0  0  0  0  0  0  0  0
    8.3557   10.3210   26.5904 H   0  0  0  0  0  0  0  0  0  0  0  0
   11.5277    5.7779   25.8104 C   0  0  0  0  0  0  0  0  0  0  0  0
   11.0851    5.9794   27.2369 C   0  0  0  0  0  0  0  0  0  0  0  0
    9.8304    6.3543   27.6605 C   0  0  0  0  0  0  0  0  0  0  0  0
    9.8317    6.4661   29.0029 N   0  0  0  0  0  0  0  0  0  0  0  0
   11.0981    6.1658   29.3626 C   0  0  0  0  0  0  0  0  0  0  0  0
   11.8839    5.8653   28.3127 N   0  0  0  0  0  0  0  0  0  0  0  0
   12.9036    5.6410   28.3299 H   0  0  0  0  0  0  0  0  0  0  0  0
   12.5559    1.4344   23.2784 C   0  0  0  0  0  0  0  0  0  0  0  0
   12.5153    0.0950   22.5229 C   0  0  0  0  0  0  0  0  0  0  0  0
   12.0084   -1.0122   23.4051 C   0  0  0  0  0  0  0  0  0  0  0  0
   10.7956   -1.3500   23.3537 O   0  0  0  0  0  0  0  0  0  0  0  0
   12.8910   -1.6789   24.3098 N   0  0  0  0  0  0  0  0  0  0  0  0
   12.5478   -2.4768   24.8900 H   0  0  0  0  0  0  0  0  0  0  0  0
   13.8842   -1.3770   24.4162 H   0  0  0  0  0  0  0  0  0  0  0  0
    6.8177    0.8464   21.3499 C   0  0  0  0  0  0  0  0  0  0  0  0
    6.2302   -0.3631   20.6024 C   0  0  0  0  0  0  0  0  0  0  0  0
    5.5535    0.0218   19.2744 C   0  0  0  0  0  0  0  0  0  0  0  0
    4.7108    1.3136   19.3237 C   0  0  0  0  0  0  0  0  0  0  0  0
    5.1038    2.2820   18.2972 N   0  0  0  0  0  0  0  0  0  0  0  0
    4.8082    1.9200   17.3594 H   0  0  0  0  0  0  0  0  0  0  0  0
    6.1404    2.3745   18.2926 H   0  0  0  0  0  0  0  0  0  0  0  0
    6.9523   -2.6572   24.8338 C   0  0  0  0  0  0  0  0  0  0  0  0
    8.1583   -2.3344   25.0033 O   0  0  0  0  0  0  0  0  0  0  0  0
    6.0192   -1.6969   24.3322 N   0  0  0  0  0  0  0  0  0  0  0  0
    5.2748   -2.0152   23.6688 H   0  0  0  0  0  0  0  0  0  0  0  0
    6.4448   -3.9702   25.3541 C   0  0  0  0  0  0  0  0  0  0  0  0
    5.5684   -4.4045   27.7072 C   0  0  0  0  0  0  0  0  0  0  0  0
    5.4377   -3.8087   28.8160 O   0  0  0  0  0  0  0  0  0  0  0  0
    6.6073   -3.9762   26.8104 N   0  0  0  0  0  0  0  0  0  0  0  0
    7.3457   -3.3633   27.2185 H   0  0  0  0  0  0  0  0  0  0  0  0
    4.7086   -5.6091   27.3875 C   0  0  0  0  0  0  0  0  0  0  0  0
    2.4745   -4.4317   27.1838 C   0  0  0  0  0  0  0  0  0  0  0  0
    3.0065   -3.4534   26.5899 O   0  0  0  0  0  0  0  0  0  0  0  0
    3.3088   -5.4272   27.7988 N   0  0  0  0  0  0  0  0  0  0  0  0
    2.8768   -6.0490   28.5159 H   0  0  0  0  0  0  0  0  0  0  0  0
    0.9724   -4.5806   27.2377 C   0  0  0  0  0  0  0  0  0  0  0  0
    0.6089   -5.7313   28.1754 C   0  0  0  0  0  0  0  0  0  0  0  0
   -0.0803   -3.7328   25.0700 C   0  0  0  0  0  0  0  0  0  0  0  0
   -0.1442   -2.5577   25.5227 O   0  0  0  0  0  0  0  0  0  0  0  0
    0.3859   -4.8067   25.9053 N   0  0  0  0  0  0  0  0  0  0  0  0
    0.3319   -5.7676   25.5058 H   0  0  0  0  0  0  0  0  0  0  0  0
   -0.4986   -4.0027   23.6457 C   0  0  0  0  0  0  0  0  0  0  0  0
   -2.6510   -3.8971   22.3070 C   0  0  0  0  0  0  0  0  0  0  0  0
   -3.6986   -4.5652   22.5319 O   0  0  0  0  0  0  0  0  0  0  0  0
   -1.8490   -3.4783   23.4174 N   0  0  0  0  0  0  0  0  0  0  0  0
   -2.3740   -3.1521   24.2539 H   0  0  0  0  0  0  0  0  0  0  0  0
   -2.3803   -3.4351   20.8848 C   0  0  0  0  0  0  0  0  0  0  0  0
   -2.3161   -5.1067   19.0090 C   0  0  0  0  0  0  0  0  0  0  0  0
   -2.8688   -4.4230   18.1037 O   0  0  0  0  0  0  0  0  0  0  0  0
   -1.6652   -4.4412   20.0965 N   0  0  0  0  0  0  0  0  0  0  0  0
   -0.6632   -4.6576   20.2852 H   0  0  0  0  0  0  0  0  0  0  0  0
   -1.3141   -7.2067   19.7611 N   0  0  0  0  0  0  0  0  0  0  0  0
   -2.4212   -6.6171   18.9963 C   0  0  0  0  0  0  0  0  0  0  0  0
   -1.3374   -8.2448   19.6266 H   0  0  0  0  0  0  0  0  0  0  0  0
   -0.4125   -6.8870   19.3407 H   0  0  0  0  0  0  0  0  0  0  0  0
   -3.7910   -7.0998   19.5228 C   0  0  0  0  0  0  0  0  0  0  0  0
   -4.4856   -5.9969   20.0577 O   0  0  0  0  0  0  0  0  0  0  0  0
   -4.6456   -7.7559   18.4290 C   0  0  0  0  0  0  0  0  0  0  0  0
   -5.2256   -6.3621   20.6066 H   0  0  0  0  0  0  0  0  0  0  0  0
   -1.6372   -2.0881   20.8609 C   0  0  0  0  0  0  0  0  0  0  0  0
   -2.4140   -0.9571   20.1635 C   0  0  0  0  0  0  0  0  0  0  0  0
   -1.6982    0.3672   20.2520 C   0  0  0  0  0  0  0  0  0  0  0  0
   -0.4425    0.4354   20.1960 O   0  0  0  0  0  0  0  0  0  0  0  0
   -2.4546    1.5689   20.3860 N   0  0  0  0  0  0  0  0  0  0  0  0
   -1.9729    2.4920   20.4294 H   0  0  0  0  0  0  0  0  0  0  0  0
   -3.5010    1.5427   20.3926 H   0  0  0  0  0  0  0  0  0  0  0  0
   -0.3877   -5.4890   23.1909 C   0  0  0  0  0  0  0  0  0  0  0  0
    0.8826   -5.9147   22.4253 C   0  0  0  0  0  0  0  0  0  0  0  0
    1.9654   -6.5929   23.2330 C   0  0  0  0  0  0  0  0  0  0  0  0
    2.5661   -5.9197   24.1077 O   0  0  0  0  0  0  0  0  0  0  0  0
    2.3680   -7.9495   23.0164 N   0  0  0  0  0  0  0  0  0  0  0  0
    2.0476   -8.5084   22.1991 H   0  0  0  0  0  0  0  0  0  0  0  0
    3.1026   -8.3763   23.6291 H   0  0  0  0  0  0  0  0  0  0  0  0
    5.3143   -6.8590   28.0593 C   0  0  0  0  0  0  0  0  0  0  0  0
    5.8226   -6.5476   29.3324 O   0  0  0  0  0  0  0  0  0  0  0  0
    5.0642   -6.6447   29.9703 H   0  0  0  0  0  0  0  0  0  0  0  0
    7.1770   -5.1641   24.7143 C   0  0  0  0  0  0  0  0  0  0  0  0
    6.6899   -5.3918   23.3113 C   0  0  0  0  0  0  0  0  0  0  0  0
    5.6734   -6.2488   22.9315 C   0  0  0  0  0  0  0  0  0  0  0  0
    5.5648   -6.2338   21.5869 N   0  0  0  0  0  0  0  0  0  0  0  0
    6.5197   -5.3642   21.1828 C   0  0  0  0  0  0  0  0  0  0  0  0
    7.2123   -4.8311   22.2105 N   0  0  0  0  0  0  0  0  0  0  0  0
    8.0070   -4.1588   22.1482 H   0  0  0  0  0  0  0  0  0  0  0  0
 95 96  1  0  0  0
 96 91  1  0  0  0
 91 92  2  0  0  0
 91 93  1  0  0  0
 93 90  1  0  0  0
 90103  1  0  0  0
103104  1  0  0  0
104105  1  0  0  0
105106  2  0  0  0
105107  1  0  0  0
 90 86  1  0  0  0
 86 87  2  0  0  0
 86 88  1  0  0  0
 88 85  1  0  0  0
 85110  1  0  0  0
110111  1  0  0  0
111112  1  0  0  0
112113  2  0  0  0
112114  1  0  0  0
 85 81  1  0  0  0
 81 82  2  0  0  0
 81 83  1  0  0  0
 83 79  1  0  0  0
 79 80  1  0  0  0
 79 75  1  0  0  0
 75 76  2  0  0  0
 75 77  1  0  0  0
 77 74  1  0  0  0
 74117  1  0  0  0
117118  1  0  0  0
 74 70  1  0  0  0
 70 71  2  0  0  0
 70 72  1  0  0  0
 72 69  1  0  0  0
 69120  1  0  0  0
120121  1  0  0  0
121122  2  0  0  0
122123  1  0  0  0
123124  2  0  0  0
124125  1  0  0  0
 69 65  1  0  0  0
 65 66  2  0  0  0
 65 67  1  0  0  0
 67  1  1  0  0  0
  1  2  1  0  0  0
  2  3  2  0  0  0
  3  4  1  0  0  0
  4  5  2  0  0  0
  5  6  1  0  0  0
  5  7  1  0  0  0
  7  8  2  0  0  0
  1 10  1  0  0  0
 10 11  2  0  0  0
 10 12  1  0  0  0
 12 14  1  0  0  0
 14 58  1  0  0  0
 58 59  1  0  0  0
 59 60  1  0  0  0
 60 61  1  0  0  0
 61 62  1  0  0  0
 14 15  1  0  0  0
 15 16  2  0  0  0
 15 17  1  0  0  0
 17 19  1  0  0  0
 19 51  1  0  0  0
 51 52  1  0  0  0
 52 53  1  0  0  0
 53 54  2  0  0  0
 53 55  1  0  0  0
 19 20  1  0  0  0
 20 21  2  0  0  0
 20 22  1  0  0  0
 22 24  1  0  0  0
 24 44  1  0  0  0
 44 45  1  0  0  0
 45 46  2  0  0  0
 46 47  1  0  0  0
 47 48  2  0  0  0
 48 49  1  0  0  0
 24 25  1  0  0  0
 25 26  2  0  0  0
 25 27  1  0  0  0
 27 29  1  0  0  0
 29 41  1  0  0  0
 41 42  1  0  0  0
 29 30  1  0  0  0
 30 31  2  0  0  0
 30 32  1  0  0  0
 32 33  1  0  0  0
 33 34  1  0  0  0
 34 35  1  0  0  0
 35 36  1  0  0  0
 36 37  1  0  0  0
 37 38  1  0  0  0
 37 39  2  0  0  0
 96 99  1  0  0  0
 99100  1  0  0  0
 99101  1  0  0  0
125121  1  0  0  0
  8  2  1  0  0  0
 49 45  1  0  0  0
 36 32  1  0  0  0
 95 97  1  0  0  0
 95 98  1  0  0  0
 93 94  1  0  0  0
107108  1  0  0  0
107109  1  0  0  0
 88 89  1  0  0  0
114115  1  0  0  0
114116  1  0  0  0
 83 84  1  0  0  0
 77 78  1  0  0  0
118119  1  0  0  0
 72 73  1  0  0  0
125126  1  0  0  0
 67 68  1  0  0  0
  6  9  1  0  0  0
 12 13  1  0  0  0
 62 63  1  0  0  0
 62 64  1  0  0  0
 17 18  1  0  0  0
 55 56  1  0  0  0
 55 57  1  0  0  0
 22 23  1  0  0  0
 49 50  1  0  0  0
 27 28  1  0  0  0
 42 43  1  0  0  0
 38 40  1  0  0  0
100102  1  0  0  0
M  END
> <minimizedAffinity>
-6.46614

$$$$



126129  0  0  0  0  0  0  0  0999 V2000
    5.8820   -0.3980   25.0191 C   0  0  0  0  0  0  0  0  0  0  0  0
    6.0543   -0.5081   26.5164 C   0  0  0  0  0  0  0  0  0  0  0  0
    4.9386   -0.5664   27.3708 C   0  0  0  0  0  0  0  0  0  0  0  0
    5.1108   -0.7178   28.7488 C   0  0  0  0  0  0  0  0  0  0  0  0
    6.3983   -0.7927   29.2949 C   0  0  0  0  0  0  0  0  0  0  0  0
    6.5598   -0.9466   30.6713 O   0  0  0  0  0  0  0  0  0  0  0  0
    7.5146   -0.7191   28.4532 C   0  0  0  0  0  0  0  0  0  0  0  0
    7.3415   -0.5871   27.0715 C   0  0  0  0  0  0  0  0  0  0  0  0
    7.4808   -0.9584   31.0937 H   0  0  0  0  0  0  0  0  0  0  0  0
    6.9718    0.4506   24.4181 C   0  0  0  0  0  0  0  0  0  0  0  0
    7.1494    1.6343   24.8089 O   0  0  0  0  0  0  0  0  0  0  0  0
    7.7861   -0.0778   23.3624 N   0  0  0  0  0  0  0  0  0  0  0  0
    8.1165   -1.0644   23.4721 H   0  0  0  0  0  0  0  0  0  0  0  0
    7.8695    0.4969   22.0096 C   0  0  0  0  0  0  0  0  0  0  0  0
    8.9430    1.5592   21.9898 C   0  0  0  0  0  0  0  0  0  0  0  0
    8.9630    2.4339   21.0770 O   0  0  0  0  0  0  0  0  0  0  0  0
    9.9518    1.5626   23.0095 N   0  0  0  0  0  0  0  0  0  0  0  0
    9.7932    0.9729   23.8583 H   0  0  0  0  0  0  0  0  0  0  0  0
   11.3168    2.0308   22.7430 C   0  0  0  0  0  0  0  0  0  0  0  0
   11.5155    3.3998   23.3478 C   0  0  0  0  0  0  0  0  0  0  0  0
   12.4743    4.1166   22.9565 O   0  0  0  0  0  0  0  0  0  0  0  0
   10.5801    3.9108   24.3153 N   0  0  0  0  0  0  0  0  0  0  0  0
    9.7577    3.3064   24.5519 H   0  0  0  0  0  0  0  0  0  0  0  0
   10.5888    5.3217   24.7368 C   0  0  0  0  0  0  0  0  0  0  0  0
    9.8570    6.2105   23.7514 C   0  0  0  0  0  0  0  0  0  0  0  0
   10.4785    6.6724   22.7559 O   0  0  0  0  0  0  0  0  0  0  0  0
    8.5101    6.6636   23.9875 N   0  0  0  0  0  0  0  0  0  0  0  0
    8.3092    7.6585   23.7279 H   0  0  0  0  0  0  0  0  0  0  0  0
    7.3360    5.8051   24.2297 C   0  0  0  0  0  0  0  0  0  0  0  0
    6.8742    5.8863   25.6673 C   0  0  0  0  0  0  0  0  0  0  0  0
    6.8166    6.9993   26.2463 O   0  0  0  0  0  0  0  0  0  0  0  0
    6.6202    4.7008   26.4333 N   0  0  0  0  0  0  0  0  0  0  0  0
    5.2973    4.1148   26.5620 C   0  0  0  0  0  0  0  0  0  0  0  0
    5.3728    3.1928   27.7701 C   0  0  0  0  0  0  0  0  0  0  0  0
    6.8613    2.9415   28.0016 C   0  0  0  0  0  0  0  0  0  0  0  0
    7.5842    4.1299   27.3652 C   0  0  0  0  0  0  0  0  0  0  0  0
    7.9933    5.1370   28.4048 C   0  0  0  0  0  0  0  0  0  0  0  0
    7.1088    5.4752   29.4189 O   0  0  0  0  0  0  0  0  0  0  0  0
    9.1212    5.6956   28.3385 O   0  0  0  0  0  0  0  0  0  0  0  0
    7.3591    6.1619   30.1199 H   0  0  0  0  0  0  0  0  0  0  0  0
    6.2107    6.1012   23.2174 C   0  0  0  0  0  0  0  0  0  0  0  0
    5.4530    4.5732   22.5682 S   0  0  0  0  0  0  0  0  0  0  0  0
    5.0607    4.0783   23.8206 H   0  0  0  0  0  0  0  0  0  0  0  0
   12.0441    5.7980   24.9347 C   0  0  0  0  0  0  0  0  0  0  0  0
   12.1669    6.8622   25.9948 C   0  0  0  0  0  0  0  0  0  0  0  0
   11.9430    8.2103   25.8324 C   0  0  0  0  0  0  0  0  0  0  0  0
   12.1898    8.8431   26.9957 N   0  0  0  0  0  0  0  0  0  0  0  0
   12.5710    7.8588   27.8378 C   0  0  0  0  0  0  0  0  0  0  0  0
   12.5669    6.6438   27.2600 N   0  0  0  0  0  0  0  0  0  0  0  0
   12.8590    5.7382   27.6900 H   0  0  0  0  0  0  0  0  0  0  0  0
   12.3416    1.0408   23.3364 C   0  0  0  0  0  0  0  0  0  0  0  0
   12.5002   -0.2250   22.4769 C   0  0  0  0  0  0  0  0  0  0  0  0
   11.7538   -1.3855   23.0746 C   0  0  0  0  0  0  0  0  0  0  0  0
   10.5308   -1.5448   22.8165 O   0  0  0  0  0  0  0  0  0  0  0  0
   12.4196   -2.3053   23.9422 N   0  0  0  0  0  0  0  0  0  0  0  0
   11.9114   -3.1353   24.3214 H   0  0  0  0  0  0  0  0  0  0  0  0
   13.4148   -2.1608   24.2209 H   0  0  0  0  0  0  0  0  0  0  0  0
    6.5095    1.0160   21.4773 C   0  0  0  0  0  0  0  0  0  0  0  0
    5.8688    0.0549   20.4613 C   0  0  0  0  0  0  0  0  0  0  0  0
    5.1623    0.7858   19.3053 C   0  0  0  0  0  0  0  0  0  0  0  0
    5.9204    0.7640   17.9615 C   0  0  0  0  0  0  0  0  0  0  0  0
    7.3743    0.7187   18.1357 N   0  0  0  0  0  0  0  0  0  0  0  0
    7.6424   -0.2266   18.4994 H   0  0  0  0  0  0  0  0  0  0  0  0
    7.6564    1.4265   18.8447 H   0  0  0  0  0  0  0  0  0  0  0  0
    6.7809   -2.7352   24.8268 C   0  0  0  0  0  0  0  0  0  0  0  0
    8.0079   -2.4628   24.9138 O   0  0  0  0  0  0  0  0  0  0  0  0
    5.8539   -1.7304   24.4078 N   0  0  0  0  0  0  0  0  0  0  0  0
    5.0519   -2.0077   23.7951 H   0  0  0  0  0  0  0  0  0  0  0  0
    6.2593   -4.0362   25.3630 C   0  0  0  0  0  0  0  0  0  0  0  0
    5.4498   -4.6562   27.6984 C   0  0  0  0  0  0  0  0  0  0  0  0
    5.1730   -4.1060   28.8039 O   0  0  0  0  0  0  0  0  0  0  0  0
    6.3907   -4.0126   26.8222 N   0  0  0  0  0  0  0  0  0  0  0  0
    6.9729   -3.2575   27.2446 H   0  0  0  0  0  0  0  0  0  0  0  0
    4.8736   -6.0155   27.3623 C   0  0  0  0  0  0  0  0  0  0  0  0
    2.5509   -6.0245   26.3505 C   0  0  0  0  0  0  0  0  0  0  0  0
    2.9882   -5.5655   25.2592 O   0  0  0  0  0  0  0  0  0  0  0  0
    3.4106   -6.0572   27.5016 N   0  0  0  0  0  0  0  0  0  0  0  0
    2.9651   -6.1578   28.4391 H   0  0  0  0  0  0  0  0  0  0  0  0
    1.1425   -6.5598   26.4560 C   0  0  0  0  0  0  0  0  0  0  0  0
    1.1785   -8.0876   26.4642 C   0  0  0  0  0  0  0  0  0  0  0  0
   -0.3251   -4.7730   25.3701 C   0  0  0  0  0  0  0  0  0  0  0  0
   -0.2587   -4.0471   26.3990 O   0  0  0  0  0  0  0  0  0  0  0  0
    0.2791   -6.0780   25.3638 N   0  0  0  0  0  0  0  0  0  0  0  0
    0.1148   -6.6658   24.5192 H   0  0  0  0  0  0  0  0  0  0  0  0
   -1.0451   -4.2614   24.1467 C   0  0  0  0  0  0  0  0  0  0  0  0
   -2.7564   -6.1312   24.0409 C   0  0  0  0  0  0  0  0  0  0  0  0
   -3.2841   -6.7115   25.0305 O   0  0  0  0  0  0  0  0  0  0  0  0
   -2.4311   -4.7406   24.1503 N   0  0  0  0  0  0  0  0  0  0  0  0
   -3.1302   -4.1528   24.6478 H   0  0  0  0  0  0  0  0  0  0  0  0
   -2.6408   -6.8958   22.7326 C   0  0  0  0  0  0  0  0  0  0  0  0
   -3.1471   -6.3411   20.3340 C   0  0  0  0  0  0  0  0  0  0  0  0
   -2.7015   -7.3847   19.7820 O   0  0  0  0  0  0  0  0  0  0  0  0
   -3.5536   -6.3882   21.7058 N   0  0  0  0  0  0  0  0  0  0  0  0
   -4.5239   -6.0947   21.9484 H   0  0  0  0  0  0  0  0  0  0  0  0
   -1.7906   -4.6020   19.2780 N   0  0  0  0  0  0  0  0  0  0  0  0
   -3.1636   -5.0273   19.5815 C   0  0  0  0  0  0  0  0  0  0  0  0
   -1.8265   -3.6354   18.8771 H   0  0  0  0  0  0  0  0  0  0  0  0
   -1.2630   -4.5167   20.1759 H   0  0  0  0  0  0  0  0  0  0  0  0
   -4.0244   -5.1119   18.3015 C   0  0  0  0  0  0  0  0  0  0  0  0
   -3.4278   -6.0289   17.4136 O   0  0  0  0  0  0  0  0  0  0  0  0
   -5.4677   -5.5493   18.5889 C   0  0  0  0  0  0  0  0  0  0  0  0
   -3.8391   -5.8772   16.5247 H   0  0  0  0  0  0  0  0  0  0  0  0
   -2.8362   -8.4073   22.9433 C   0  0  0  0  0  0  0  0  0  0  0  0
   -1.5810   -9.2477   22.6481 C   0  0  0  0  0  0  0  0  0  0  0  0
   -1.6890  -10.6484   23.1960 C   0  0  0  0  0  0  0  0  0  0  0  0
   -0.8742  -11.0784   24.0537 O   0  0  0  0  0  0  0  0  0  0  0  0
   -2.7419  -11.5003   22.7486 N   0  0  0  0  0  0  0  0  0  0  0  0
   -2.8387  -12.4639   23.1333 H   0  0  0  0  0  0  0  0  0  0  0  0
   -3.4568  -11.1523   22.0679 H   0  0  0  0  0  0  0  0  0  0  0  0
   -0.3468   -4.5686   22.7879 C   0  0  0  0  0  0  0  0  0  0  0  0
    0.9228   -5.4452   22.8129 C   0  0  0  0  0  0  0  0  0  0  0  0
    0.9812   -6.5820   21.8183 C   0  0  0  0  0  0  0  0  0  0  0  0
    0.2712   -6.5058   20.7843 O   0  0  0  0  0  0  0  0  0  0  0  0
    1.7709   -7.7585   22.0220 N   0  0  0  0  0  0  0  0  0  0  0  0
    2.2382   -7.9736   22.9266 H   0  0  0  0  0  0  0  0  0  0  0  0
    1.7969   -8.4997   21.2823 H   0  0  0  0  0  0  0  0  0  0  0  0
    5.5354   -7.0838   28.2575 C   0  0  0  0  0  0  0  0  0  0  0  0
    6.8731   -6.7497   28.5317 O   0  0  0  0  0  0  0  0  0  0  0  0
    6.8584   -6.1671   29.3391 H   0  0  0  0  0  0  0  0  0  0  0  0
    7.0022   -5.2444   24.7636 C   0  0  0  0  0  0  0  0  0  0  0  0
    6.5934   -5.4592   23.3338 C   0  0  0  0  0  0  0  0  0  0  0  0
    5.5554   -6.2608   22.8956 C   0  0  0  0  0  0  0  0  0  0  0  0
    5.5340   -6.2544   21.5467 N   0  0  0  0  0  0  0  0  0  0  0  0
    6.5615   -5.4454   21.1987 C   0  0  0  0  0  0  0  0  0  0  0  0
    7.2167   -4.9415   22.2649 N   0  0  0  0  0  0  0  0  0  0  0  0
    8.0514   -4.3166   22.2490 H   0  0  0  0  0  0  0  0  0  0  0  0
 95 96  1  0  0  0
 96 91  1  0  0  0
 91 92  2  0  0  0
 91 93  1  0  0  0
 93 90  1  0  0  0
 90103  1  0  0  0
103104  1  0  0  0
104105  1  0  0  0
105106  2  0  0  0
105107  1  0  0  0
 90 86  1  0  0  0
 86 87  2  0  0  0
 86 88  1  0  0  0
 88 85  1  0  0  0
 85110  1  0  0  0
110111  1  0  0  0
111112  1  0  0  0
112113  2  0  0  0
112114  1  0  0  0
 85 81  1  0  0  0
 81 82  2  0  0  0
 81 83  1  0  0  0
 83 79  1  0  0  0
 79 80  1  0  0  0
 79 75  1  0  0  0
 75 76  2  0  0  0
 75 77  1  0  0  0
 77 74  1  0  0  0
 74117  1  0  0  0
117118  1  0  0  0
 74 70  1  0  0  0
 70 71  2  0  0  0
 70 72  1  0  0  0
 72 69  1  0  0  0
 69120  1  0  0  0
120121  1  0  0  0
121122  2  0  0  0
122123  1  0  0  0
123124  2  0  0  0
124125  1  0  0  0
 69 65  1  0  0  0
 65 66  2  0  0  0
 65 67  1  0  0  0
 67  1  1  0  0  0
  1  2  1  0  0  0
  2  3  2  0  0  0
  3  4  1  0  0  0
  4  5  2  0  0  0
  5  6  1  0  0  0
  5  7  1  0  0  0
  7  8  2  0  0  0
  1 10  1  0  0  0
 10 11  2  0  0  0
 10 12  1  0  0  0
 12 14  1  0  0  0
 14 58  1  0  0  0
 58 59  1  0  0  0
 59 60  1  0  0  0
 60 61  1  0  0  0
 61 62  1  0  0  0
 14 15  1  0  0  0
 15 16  2  0  0  0
 15 17  1  0  0  0
 17 19  1  0  0  0
 19 51  1  0  0  0
 51 52  1  0  0  0
 52 53  1  0  0  0
 53 54  2  0  0  0
 53 55  1  0  0  0
 19 20  1  0  0  0
 20 21  2  0  0  0
 20 22  1  0  0  0
 22 24  1  0  0  0
 24 44  1  0  0  0
 44 45  1  0  0  0
 45 46  2  0  0  0
 46 47  1  0  0  0
 47 48  2  0  0  0
 48 49  1  0  0  0
 24 25  1  0  0  0
 25 26  2  0  0  0
 25 27  1  0  0  0
 27 29  1  0  0  0
 29 41  1  0  0  0
 41 42  1  0  0  0
 29 30  1  0  0  0
 30 31  2  0  0  0
 30 32  1  0  0  0
 32 33  1  0  0  0
 33 34  1  0  0  0
 34 35  1  0  0  0
 35 36  1  0  0  0
 36 37  1  0  0  0
 37 38  1  0  0  0
 37 39  2  0  0  0
 96 99  1  0  0  0
 99100  1  0  0  0
 99101  1  0  0  0
125121  1  0  0  0
  8  2  1  0  0  0
 49 45  1  0  0  0
 36 32  1  0  0  0
 95 97  1  0  0  0
 95 98  1  0  0  0
 93 94  1  0  0  0
107108  1  0  0  0
107109  1  0  0  0
 88 89  1  0  0  0
114115  1  0  0  0
114116  1  0  0  0
 83 84  1  0  0  0
 77 78  1  0  0  0
118119  1  0  0  0
 72 73  1  0  0  0
125126  1  0  0  0
 67 68  1  0  0  0
  6  9  1  0  0  0
 12 13  1  0  0  0
 62 63  1  0  0  0
 62 64  1  0  0  0
 17 18  1  0  0  0
 55 56  1  0  0  0
 55 57  1  0  0  0
 22 23  1  0  0  0
 49 50  1  0  0  0
 27 28  1  0  0  0
 42 43  1  0  0  0
 38 40  1  0  0  0
100102  1  0  0  0
M  END
> <minimizedAffinity>
-6.13139

$$$$



126129  0  0  0  0  0  0  0  0999 V2000
   26.0297   -4.7233   21.5903 C   0  0  0  0  0  0  0  0  0  0  0  0
   25.1372   -4.5346   22.7950 C   0  0  0  0  0  0  0  0  0  0  0  0
   24.6412   -3.2634   23.1363 C   0  0  0  0  0  0  0  0  0  0  0  0
   23.7774   -3.1102   24.2233 C   0  0  0  0  0  0  0  0  0  0  0  0
   23.4128   -4.2196   24.9966 C   0  0  0  0  0  0  0  0  0  0  0  0
   22.5477   -4.0568   26.0780 O   0  0  0  0  0  0  0  0  0  0  0  0
   23.9149   -5.4859   24.6737 C   0  0  0  0  0  0  0  0  0  0  0  0
   24.7643   -5.6420   23.5734 C   0  0  0  0  0  0  0  0  0  0  0  0
   22.3053   -4.8364   26.6782 H   0  0  0  0  0  0  0  0  0  0  0  0
   25.5604   -5.8866   20.7562 C   0  0  0  0  0  0  0  0  0  0  0  0
   24.3331   -6.0615   20.5359 O   0  0  0  0  0  0  0  0  0  0  0  0
   26.5144   -6.8272   20.2444 N   0  0  0  0  0  0  0  0  0  0  0  0
   27.3981   -6.4322   19.8475 H   0  0  0  0  0  0  0  0  0  0  0  0
   26.5248   -8.2624   20.5718 C   0  0  0  0  0  0  0  0  0  0  0  0
   27.6718   -8.5460   21.5127 C   0  0  0  0  0  0  0  0  0  0  0  0
   28.7304   -7.8567   21.4595 O   0  0  0  0  0  0  0  0  0  0  0  0
   27.5580   -9.6146   22.4627 N   0  0  0  0  0  0  0  0  0  0  0  0
   26.6100  -10.0226   22.6307 H   0  0  0  0  0  0  0  0  0  0  0  0
   28.7264  -10.3891   22.8965 C   0  0  0  0  0  0  0  0  0  0  0  0
   29.0556  -10.0582   24.3323 C   0  0  0  0  0  0  0  0  0  0  0  0
   29.4282  -10.9763   25.1099 O   0  0  0  0  0  0  0  0  0  0  0  0
   29.0092   -8.6956   24.7941 N   0  0  0  0  0  0  0  0  0  0  0  0
   28.7665   -7.9591   24.0895 H   0  0  0  0  0  0  0  0  0  0  0  0
   29.5616   -8.2967   26.0995 C   0  0  0  0  0  0  0  0  0  0  0  0
   28.5358   -7.5764   26.9511 C   0  0  0  0  0  0  0  0  0  0  0  0
   28.1602   -8.0953   28.0376 O   0  0  0  0  0  0  0  0  0  0  0  0
   27.8665   -6.3852   26.4946 N   0  0  0  0  0  0  0  0  0  0  0  0
   26.8455   -6.3185   26.7195 H   0  0  0  0  0  0  0  0  0  0  0  0
   28.5190   -5.1372   26.0575 C   0  0  0  0  0  0  0  0  0  0  0  0
   28.5333   -5.0149   24.5504 C   0  0  0  0  0  0  0  0  0  0  0  0
   28.1271   -5.9672   23.8393 O   0  0  0  0  0  0  0  0  0  0  0  0
   29.1232   -3.8790   23.9036 N   0  0  0  0  0  0  0  0  0  0  0  0
   28.3525   -2.7179   23.4940 C   0  0  0  0  0  0  0  0  0  0  0  0
   29.2212   -1.9851   22.4821 C   0  0  0  0  0  0  0  0  0  0  0  0
   30.6383   -2.5104   22.7017 C   0  0  0  0  0  0  0  0  0  0  0  0
   30.4725   -3.8845   23.3532 C   0  0  0  0  0  0  0  0  0  0  0  0
   30.6408   -4.9877   22.3447 C   0  0  0  0  0  0  0  0  0  0  0  0
   29.6799   -5.1711   21.3607 O   0  0  0  0  0  0  0  0  0  0  0  0
   31.6326   -5.7626   22.4108 O   0  0  0  0  0  0  0  0  0  0  0  0
   29.7669   -5.9172   20.6814 H   0  0  0  0  0  0  0  0  0  0  0  0
   27.8989   -3.9099   26.7561 C   0  0  0  0  0  0  0  0  0  0  0  0
   27.6385   -4.1951   28.5397 S   0  0  0  0  0  0  0  0  0  0  0  0
   28.9833   -4.4717   28.8266 H   0  0  0  0  0  0  0  0  0  0  0  0
   30.8167   -7.4223   25.8895 C   0  0  0  0  0  0  0  0  0  0  0  0
   31.9678   -8.1931   25.2960 C   0  0  0  0  0  0  0  0  0  0  0  0
   32.7320   -9.1443   25.9326 C   0  0  0  0  0  0  0  0  0  0  0  0
   33.6873   -9.5813   25.0895 N   0  0  0  0  0  0  0  0  0  0  0  0
   33.4856   -8.8718   23.9584 C   0  0  0  0  0  0  0  0  0  0  0  0
   32.4482   -8.0203   24.0519 N   0  0  0  0  0  0  0  0  0  0  0  0
   32.1216   -7.3399   23.3301 H   0  0  0  0  0  0  0  0  0  0  0  0
   28.4417  -11.8998   22.7578 C   0  0  0  0  0  0  0  0  0  0  0  0
   28.5105  -12.3783   21.2975 C   0  0  0  0  0  0  0  0  0  0  0  0
   27.1488  -12.7571   20.7843 C   0  0  0  0  0  0  0  0  0  0  0  0
   26.1687  -12.7960   21.5752 O   0  0  0  0  0  0  0  0  0  0  0  0
   26.9593  -13.0831   19.4060 N   0  0  0  0  0  0  0  0  0  0  0  0
   26.0052  -13.3031   19.0422 H   0  0  0  0  0  0  0  0  0  0  0  0
   27.7650  -13.1186   18.7439 H   0  0  0  0  0  0  0  0  0  0  0  0
   26.5413   -9.1781   19.3214 C   0  0  0  0  0  0  0  0  0  0  0  0
   27.9666   -9.5785   18.9031 C   0  0  0  0  0  0  0  0  0  0  0  0
   28.4972   -8.7571   17.7142 C   0  0  0  0  0  0  0  0  0  0  0  0
   29.5300   -7.6713   18.0825 C   0  0  0  0  0  0  0  0  0  0  0  0
   28.9022   -6.4243   18.5261 N   0  0  0  0  0  0  0  0  0  0  0  0
   28.4718   -6.5786   19.4689 H   0  0  0  0  0  0  0  0  0  0  0  0
   28.1406   -6.1699   17.8641 H   0  0  0  0  0  0  0  0  0  0  0  0
   26.8571   -3.4438   19.5939 C   0  0  0  0  0  0  0  0  0  0  0  0
   28.0455   -3.8624   19.5929 O   0  0  0  0  0  0  0  0  0  0  0  0
   26.0834   -3.4924   20.7953 N   0  0  0  0  0  0  0  0  0  0  0  0
   25.4237   -2.7067   21.0029 H   0  0  0  0  0  0  0  0  0  0  0  0
   26.1810   -3.0961   18.3000 C   0  0  0  0  0  0  0  0  0  0  0  0
   24.3807   -1.2955   18.1963 C   0  0  0  0  0  0  0  0  0  0  0  0
   23.6152   -0.6476   18.9681 O   0  0  0  0  0  0  0  0  0  0  0  0
   24.8391   -2.5947   18.6079 N   0  0  0  0  0  0  0  0  0  0  0  0
   24.3282   -3.0334   19.4042 H   0  0  0  0  0  0  0  0  0  0  0  0
   24.7167   -0.7472   16.8255 C   0  0  0  0  0  0  0  0  0  0  0  0
   26.2926    1.2365   16.8499 C   0  0  0  0  0  0  0  0  0  0  0  0
   27.2506    0.5131   17.2396 O   0  0  0  0  0  0  0  0  0  0  0  0
   24.9582    0.7029   16.8426 N   0  0  0  0  0  0  0  0  0  0  0  0
   24.1643    1.3779   16.8036 H   0  0  0  0  0  0  0  0  0  0  0  0
   26.5339    2.6483   16.3707 C   0  0  0  0  0  0  0  0  0  0  0  0
   25.6597    3.6132   17.1709 C   0  0  0  0  0  0  0  0  0  0  0  0
   27.3232    2.9010   13.9543 C   0  0  0  0  0  0  0  0  0  0  0  0
   28.5229    3.0178   14.3244 O   0  0  0  0  0  0  0  0  0  0  0  0
   26.2707    2.8011   14.9292 N   0  0  0  0  0  0  0  0  0  0  0  0
   25.2944    2.7969   14.5651 H   0  0  0  0  0  0  0  0  0  0  0  0
   27.0015    2.8689   12.4805 C   0  0  0  0  0  0  0  0  0  0  0  0
   24.9850    3.2231   10.9825 C   0  0  0  0  0  0  0  0  0  0  0  0
   24.0259    2.4169   10.8256 O   0  0  0  0  0  0  0  0  0  0  0  0
   25.6168    3.3014   12.2656 N   0  0  0  0  0  0  0  0  0  0  0  0
   24.9779    3.2567   13.0851 H   0  0  0  0  0  0  0  0  0  0  0  0
   25.3148    4.1822    9.8507 C   0  0  0  0  0  0  0  0  0  0  0  0
   26.1872    3.6000    7.5666 C   0  0  0  0  0  0  0  0  0  0  0  0
   25.8113    4.6253    6.9342 O   0  0  0  0  0  0  0  0  0  0  0  0
   26.3811    3.6774    8.9828 N   0  0  0  0  0  0  0  0  0  0  0  0
   27.3088    3.4079    9.3742 H   0  0  0  0  0  0  0  0  0  0  0  0
   27.3170    1.4314    7.5525 N   0  0  0  0  0  0  0  0  0  0  0  0
   26.3408    2.2751    6.8501 C   0  0  0  0  0  0  0  0  0  0  0  0
   27.4992    0.5823    6.9676 H   0  0  0  0  0  0  0  0  0  0  0  0
   28.2266    1.9438    7.5988 H   0  0  0  0  0  0  0  0  0  0  0  0
   24.9851    1.5527    6.6861 C   0  0  0  0  0  0  0  0  0  0  0  0
   24.1360    1.9364    7.7430 O   0  0  0  0  0  0  0  0  0  0  0  0
   24.3048    1.8716    5.3472 C   0  0  0  0  0  0  0  0  0  0  0  0
   23.3902    1.2840    7.7636 H   0  0  0  0  0  0  0  0  0  0  0  0
   25.6563    5.5853   10.3816 C   0  0  0  0  0  0  0  0  0  0  0  0
   24.4507    6.3445   10.9641 C   0  0  0  0  0  0  0  0  0  0  0  0
   24.7157    6.8550   12.3580 C   0  0  0  0  0  0  0  0  0  0  0  0
   25.3342    6.1559   13.2025 O   0  0  0  0  0  0  0  0  0  0  0  0
   24.2730    8.1600   12.7259 N   0  0  0  0  0  0  0  0  0  0  0  0
   24.4663    8.5318   13.6801 H   0  0  0  0  0  0  0  0  0  0  0  0
   23.7939    8.7770   12.0293 H   0  0  0  0  0  0  0  0  0  0  0  0
   27.2844    1.5121   11.7682 C   0  0  0  0  0  0  0  0  0  0  0  0
   27.0060    0.2142   12.5549 C   0  0  0  0  0  0  0  0  0  0  0  0
   25.5549   -0.1598   12.7536 C   0  0  0  0  0  0  0  0  0  0  0  0
   24.8629    0.5350   13.5394 O   0  0  0  0  0  0  0  0  0  0  0  0
   24.9471   -1.2931   12.1247 N   0  0  0  0  0  0  0  0  0  0  0  0
   25.4949   -2.0128   11.6100 H   0  0  0  0  0  0  0  0  0  0  0  0
   23.9282   -1.4846   12.2747 H   0  0  0  0  0  0  0  0  0  0  0  0
   23.5782   -1.0970   15.8448 C   0  0  0  0  0  0  0  0  0  0  0  0
   23.9772   -2.1077   14.9529 O   0  0  0  0  0  0  0  0  0  0  0  0
   23.7778   -2.9742   15.4012 H   0  0  0  0  0  0  0  0  0  0  0  0
   26.1115   -4.3021   17.3451 C   0  0  0  0  0  0  0  0  0  0  0  0
   27.0929   -4.1408   16.2188 C   0  0  0  0  0  0  0  0  0  0  0  0
   27.3913   -2.9613   15.5618 C   0  0  0  0  0  0  0  0  0  0  0  0
   28.2673   -3.2204   14.5689 N   0  0  0  0  0  0  0  0  0  0  0  0
   28.4807   -4.5543   14.6494 C   0  0  0  0  0  0  0  0  0  0  0  0
   27.7866   -5.1372   15.6487 N   0  0  0  0  0  0  0  0  0  0  0  0
   27.7702   -6.1513   15.8911 H   0  0  0  0  0  0  0  0  0  0  0  0
 95 96  1  0  0  0
 96 91  1  0  0  0
 91 92  2  0  0  0
 91 93  1  0  0  0
 93 90  1  0  0  0
 90103  1  0  0  0
103104  1  0  0  0
104105  1  0  0  0
105106  2  0  0  0
105107  1  0  0  0
 90 86  1  0  0  0
 86 87  2  0  0  0
 86 88  1  0  0  0
 88 85  1  0  0  0
 85110  1  0  0  0
110111  1  0  0  0
111112  1  0  0  0
112113  2  0  0  0
112114  1  0  0  0
 85 81  1  0  0  0
 81 82  2  0  0  0
 81 83  1  0  0  0
 83 79  1  0  0  0
 79 80  1  0  0  0
 79 75  1  0  0  0
 75 76  2  0  0  0
 75 77  1  0  0  0
 77 74  1  0  0  0
 74117  1  0  0  0
117118  1  0  0  0
 74 70  1  0  0  0
 70 71  2  0  0  0
 70 72  1  0  0  0
 72 69  1  0  0  0
 69120  1  0  0  0
120121  1  0  0  0
121122  2  0  0  0
122123  1  0  0  0
123124  2  0  0  0
124125  1  0  0  0
 69 65  1  0  0  0
 65 66  2  0  0  0
 65 67  1  0  0  0
 67  1  1  0  0  0
  1  2  1  0  0  0
  2  3  2  0  0  0
  3  4  1  0  0  0
  4  5  2  0  0  0
  5  6  1  0  0  0
  5  7  1  0  0  0
  7  8  2  0  0  0
  1 10  1  0  0  0
 10 11  2  0  0  0
 10 12  1  0  0  0
 12 14  1  0  0  0
 14 58  1  0  0  0
 58 59  1  0  0  0
 59 60  1  0  0  0
 60 61  1  0  0  0
 61 62  1  0  0  0
 14 15  1  0  0  0
 15 16  2  0  0  0
 15 17  1  0  0  0
 17 19  1  0  0  0
 19 51  1  0  0  0
 51 52  1  0  0  0
 52 53  1  0  0  0
 53 54  2  0  0  0
 53 55  1  0  0  0
 19 20  1  0  0  0
 20 21  2  0  0  0
 20 22  1  0  0  0
 22 24  1  0  0  0
 24 44  1  0  0  0
 44 45  1  0  0  0
 45 46  2  0  0  0
 46 47  1  0  0  0
 47 48  2  0  0  0
 48 49  1  0  0  0
 24 25  1  0  0  0
 25 26  2  0  0  0
 25 27  1  0  0  0
 27 29  1  0  0  0
 29 41  1  0  0  0
 41 42  1  0  0  0
 29 30  1  0  0  0
 30 31  2  0  0  0
 30 32  1  0  0  0
 32 33  1  0  0  0
 33 34  1  0  0  0
 34 35  1  0  0  0
 35 36  1  0  0  0
 36 37  1  0  0  0
 37 38  1  0  0  0
 37 39  2  0  0  0
 96 99  1  0  0  0
 99100  1  0  0  0
 99101  1  0  0  0
125121  1  0  0  0
  8  2  1  0  0  0
 49 45  1  0  0  0
 36 32  1  0  0  0
 95 97  1  0  0  0
 95 98  1  0  0  0
 93 94  1  0  0  0
107108  1  0  0  0
107109  1  0  0  0
 88 89  1  0  0  0
114115  1  0  0  0
114116  1  0  0  0
 83 84  1  0  0  0
 77 78  1  0  0  0
118119  1  0  0  0
 72 73  1  0  0  0
125126  1  0  0  0
 67 68  1  0  0  0
  6  9  1  0  0  0
 12 13  1  0  0  0
 62 63  1  0  0  0
 62 64  1  0  0  0
 17 18  1  0  0  0
 55 56  1  0  0  0
 55 57  1  0  0  0
 22 23  1  0  0  0
 49 50  1  0  0  0
 27 28  1  0  0  0
 42 43  1  0  0  0
 38 40  1  0  0  0
100102  1  0  0  0
M  END
> <minimizedAffinity>
-6.03221

$$$$



126129  0  0  0  0  0  0  0  0999 V2000
    6.0766   -0.3442   24.7384 C   0  0  0  0  0  0  0  0  0  0  0  0
    5.9120   -0.5019   26.2323 C   0  0  0  0  0  0  0  0  0  0  0  0
    6.9895   -0.2736   27.1070 C   0  0  0  0  0  0  0  0  0  0  0  0
    6.8116   -0.3747   28.4889 C   0  0  0  0  0  0  0  0  0  0  0  0
    5.5619   -0.7244   29.0157 C   0  0  0  0  0  0  0  0  0  0  0  0
    5.3937   -0.8199   30.3965 O   0  0  0  0  0  0  0  0  0  0  0  0
    4.4882   -0.9693   28.1513 C   0  0  0  0  0  0  0  0  0  0  0  0
    4.6618   -0.8490   26.7685 C   0  0  0  0  0  0  0  0  0  0  0  0
    4.5115   -1.1146   30.7988 H   0  0  0  0  0  0  0  0  0  0  0  0
    7.2223    0.5816   24.4231 C   0  0  0  0  0  0  0  0  0  0  0  0
    7.3057    1.7082   24.9793 O   0  0  0  0  0  0  0  0  0  0  0  0
    8.2028    0.1963   23.4501 N   0  0  0  0  0  0  0  0  0  0  0  0
    8.5391   -0.7936   23.4876 H   0  0  0  0  0  0  0  0  0  0  0  0
    8.4771    0.9370   22.2077 C   0  0  0  0  0  0  0  0  0  0  0  0
    8.0964    2.3857   22.4024 C   0  0  0  0  0  0  0  0  0  0  0  0
    7.0446    2.8489   21.8754 O   0  0  0  0  0  0  0  0  0  0  0  0
    8.9453    3.2402   23.1813 N   0  0  0  0  0  0  0  0  0  0  0  0
    9.6811    2.7921   23.7741 H   0  0  0  0  0  0  0  0  0  0  0  0
    9.0759    4.6722   22.8890 C   0  0  0  0  0  0  0  0  0  0  0  0
    8.1188    5.4599   23.7509 C   0  0  0  0  0  0  0  0  0  0  0  0
    8.4418    5.7446   24.9345 O   0  0  0  0  0  0  0  0  0  0  0  0
    6.8757    5.9400   23.2066 N   0  0  0  0  0  0  0  0  0  0  0  0
    6.6872    5.7412   22.1953 H   0  0  0  0  0  0  0  0  0  0  0  0
    6.0380    6.9169   23.9223 C   0  0  0  0  0  0  0  0  0  0  0  0
    5.1174    6.2468   24.9222 C   0  0  0  0  0  0  0  0  0  0  0  0
    4.5877    5.1402   24.6297 O   0  0  0  0  0  0  0  0  0  0  0  0
    4.7120    6.8983   26.1414 N   0  0  0  0  0  0  0  0  0  0  0  0
    3.7102    6.7684   26.4191 H   0  0  0  0  0  0  0  0  0  0  0  0
    5.6118    7.4281   27.1823 C   0  0  0  0  0  0  0  0  0  0  0  0
    6.0929    6.3358   28.1108 C   0  0  0  0  0  0  0  0  0  0  0  0
    7.1688    6.4779   28.7430 O   0  0  0  0  0  0  0  0  0  0  0  0
    5.4113    5.0765   28.1912 N   0  0  0  0  0  0  0  0  0  0  0  0
    4.3957    4.7933   29.1902 C   0  0  0  0  0  0  0  0  0  0  0  0
    4.2670    3.2775   29.2261 C   0  0  0  0  0  0  0  0  0  0  0  0
    4.8847    2.7827   27.9200 C   0  0  0  0  0  0  0  0  0  0  0  0
    5.8484    3.8845   27.4758 C   0  0  0  0  0  0  0  0  0  0  0  0
    7.2696    3.5357   27.8234 C   0  0  0  0  0  0  0  0  0  0  0  0
    8.2667    3.6876   26.8706 O   0  0  0  0  0  0  0  0  0  0  0  0
    7.5503    3.0776   28.9635 O   0  0  0  0  0  0  0  0  0  0  0  0
    9.2273    3.4444   27.0797 H   0  0  0  0  0  0  0  0  0  0  0  0
    6.7650    8.2421   26.5606 C   0  0  0  0  0  0  0  0  0  0  0  0
    6.4823   10.0404   26.6897 S   0  0  0  0  0  0  0  0  0  0  0  0
    6.3805   10.0576   28.0885 H   0  0  0  0  0  0  0  0  0  0  0  0
    5.2329    7.7565   22.9069 C   0  0  0  0  0  0  0  0  0  0  0  0
    5.5996    9.2179   22.9428 C   0  0  0  0  0  0  0  0  0  0  0  0
    4.7481   10.2706   23.1889 C   0  0  0  0  0  0  0  0  0  0  0  0
    5.4354   11.4257   23.1000 N   0  0  0  0  0  0  0  0  0  0  0  0
    6.6927   11.0441   22.7887 C   0  0  0  0  0  0  0  0  0  0  0  0
    6.8250    9.7091   22.6865 N   0  0  0  0  0  0  0  0  0  0  0  0
    7.6827    9.1774   22.4179 H   0  0  0  0  0  0  0  0  0  0  0  0
   10.5240    5.1368   23.1528 C   0  0  0  0  0  0  0  0  0  0  0  0
   10.7815    6.5682   22.6520 C   0  0  0  0  0  0  0  0  0  0  0  0
   12.0568    7.1235   23.2234 C   0  0  0  0  0  0  0  0  0  0  0  0
   12.0154    7.8869   24.2250 O   0  0  0  0  0  0  0  0  0  0  0  0
   13.3168    6.7992   22.6323 N   0  0  0  0  0  0  0  0  0  0  0  0
   14.2044    7.1499   23.0566 H   0  0  0  0  0  0  0  0  0  0  0  0
   13.3737    6.2202   21.7661 H   0  0  0  0  0  0  0  0  0  0  0  0
    7.8090    0.3097   20.9577 C   0  0  0  0  0  0  0  0  0  0  0  0
    6.3379   -0.0676   21.2027 C   0  0  0  0  0  0  0  0  0  0  0  0
    5.4187    0.3000   20.0238 C   0  0  0  0  0  0  0  0  0  0  0  0
    6.1519    0.6604   18.7147 C   0  0  0  0  0  0  0  0  0  0  0  0
    5.7981   -0.2310   17.6074 N   0  0  0  0  0  0  0  0  0  0  0  0
    4.8127   -0.0306   17.3129 H   0  0  0  0  0  0  0  0  0  0  0  0
    5.8400   -1.2178   17.9353 H   0  0  0  0  0  0  0  0  0  0  0  0
    7.1760   -2.6010   24.6652 C   0  0  0  0  0  0  0  0  0  0  0  0
    8.3410   -2.2430   24.9847 O   0  0  0  0  0  0  0  0  0  0  0  0
    6.2658   -1.6521   24.1034 N   0  0  0  0  0  0  0  0  0  0  0  0
    5.6142   -1.9650   23.3464 H   0  0  0  0  0  0  0  0  0  0  0  0
    6.6685   -3.9551   25.0665 C   0  0  0  0  0  0  0  0  0  0  0  0
    5.7708   -4.5236   27.3827 C   0  0  0  0  0  0  0  0  0  0  0  0
    5.6826   -4.0141   28.5377 O   0  0  0  0  0  0  0  0  0  0  0  0
    6.8338   -4.0920   26.5160 N   0  0  0  0  0  0  0  0  0  0  0  0
    7.6121   -3.5649   26.9674 H   0  0  0  0  0  0  0  0  0  0  0  0
    4.8322   -5.6384   26.9717 C   0  0  0  0  0  0  0  0  0  0  0  0
    2.5111   -5.5395   25.9611 C   0  0  0  0  0  0  0  0  0  0  0  0
    2.9658   -5.7840   24.8094 O   0  0  0  0  0  0  0  0  0  0  0  0
    3.4194   -5.2363   27.0327 N   0  0  0  0  0  0  0  0  0  0  0  0
    3.0343   -4.7613   27.8774 H   0  0  0  0  0  0  0  0  0  0  0  0
    1.0258   -5.5828   26.2321 C   0  0  0  0  0  0  0  0  0  0  0  0
    0.5249   -7.0197   26.0907 C   0  0  0  0  0  0  0  0  0  0  0  0
   -1.0476   -4.2070   25.6542 C   0  0  0  0  0  0  0  0  0  0  0  0
   -1.6675   -4.6617   26.6536 O   0  0  0  0  0  0  0  0  0  0  0  0
    0.2689   -4.6908   25.3365 N   0  0  0  0  0  0  0  0  0  0  0  0
    0.6937   -4.3443   24.4503 H   0  0  0  0  0  0  0  0  0  0  0  0
   -1.6994   -3.1526   24.7939 C   0  0  0  0  0  0  0  0  0  0  0  0
   -2.2047   -4.9100   23.0356 C   0  0  0  0  0  0  0  0  0  0  0  0
   -2.7566   -6.0273   23.2397 O   0  0  0  0  0  0  0  0  0  0  0  0
   -2.6047   -3.7880   23.8311 N   0  0  0  0  0  0  0  0  0  0  0  0
   -3.6239   -3.7149   24.0254 H   0  0  0  0  0  0  0  0  0  0  0  0
   -1.2619   -4.7758   21.8512 C   0  0  0  0  0  0  0  0  0  0  0  0
   -1.9486   -2.7819   20.4839 C   0  0  0  0  0  0  0  0  0  0  0  0
   -0.8696   -2.1282   20.5151 O   0  0  0  0  0  0  0  0  0  0  0  0
   -1.9191   -4.2002   20.6757 N   0  0  0  0  0  0  0  0  0  0  0  0
   -2.3363   -4.8112   19.9416 H   0  0  0  0  0  0  0  0  0  0  0  0
   -4.2911   -2.7047   21.1812 N   0  0  0  0  0  0  0  0  0  0  0  0
   -3.2729   -2.0623   20.3392 C   0  0  0  0  0  0  0  0  0  0  0  0
   -5.2193   -2.2718   20.9633 H   0  0  0  0  0  0  0  0  0  0  0  0
   -4.3727   -3.7071   20.8977 H   0  0  0  0  0  0  0  0  0  0  0  0
   -3.1438   -0.5565   20.6592 C   0  0  0  0  0  0  0  0  0  0  0  0
   -4.0495    0.1582   19.8505 O   0  0  0  0  0  0  0  0  0  0  0  0
   -3.4233   -0.2409   22.1354 C   0  0  0  0  0  0  0  0  0  0  0  0
   -3.7746    1.1099   19.8832 H   0  0  0  0  0  0  0  0  0  0  0  0
   -0.5953   -6.1188   21.5058 C   0  0  0  0  0  0  0  0  0  0  0  0
    0.8053   -6.2981   22.1184 C   0  0  0  0  0  0  0  0  0  0  0  0
    1.2665   -7.7333   22.0802 C   0  0  0  0  0  0  0  0  0  0  0  0
    0.9434   -8.4977   21.1337 O   0  0  0  0  0  0  0  0  0  0  0  0
    2.0976   -8.2339   23.1257 N   0  0  0  0  0  0  0  0  0  0  0  0
    2.4384   -9.2183   23.1014 H   0  0  0  0  0  0  0  0  0  0  0  0
    2.4146   -7.6069   23.9016 H   0  0  0  0  0  0  0  0  0  0  0  0
   -0.7165   -2.1752   24.0820 C   0  0  0  0  0  0  0  0  0  0  0  0
   -0.4115   -0.8301   24.7740 C   0  0  0  0  0  0  0  0  0  0  0  0
    0.9289   -0.7109   25.4625 C   0  0  0  0  0  0  0  0  0  0  0  0
    1.3939   -1.7251   26.0406 O   0  0  0  0  0  0  0  0  0  0  0  0
    1.6689    0.5130   25.5251 N   0  0  0  0  0  0  0  0  0  0  0  0
    1.2699    1.4281   25.2312 H   0  0  0  0  0  0  0  0  0  0  0  0
    2.6081    0.5276   25.9887 H   0  0  0  0  0  0  0  0  0  0  0  0
    5.0854   -6.8712   27.8641 C   0  0  0  0  0  0  0  0  0  0  0  0
    3.8728   -7.4684   28.2503 O   0  0  0  0  0  0  0  0  0  0  0  0
    3.6336   -8.1126   27.5296 H   0  0  0  0  0  0  0  0  0  0  0  0
    7.3987   -5.0871   24.3206 C   0  0  0  0  0  0  0  0  0  0  0  0
    6.5710   -5.5789   23.1670 C   0  0  0  0  0  0  0  0  0  0  0  0
    6.9526   -5.5906   21.8380 C   0  0  0  0  0  0  0  0  0  0  0  0
    5.9250   -6.0418   21.0893 N   0  0  0  0  0  0  0  0  0  0  0  0
    4.9429   -6.2952   21.9853 C   0  0  0  0  0  0  0  0  0  0  0  0
    5.3114   -6.0312   23.2560 N   0  0  0  0  0  0  0  0  0  0  0  0
    4.7221   -6.1249   24.1112 H   0  0  0  0  0  0  0  0  0  0  0  0
 95 96  1  0  0  0
 96 91  1  0  0  0
 91 92  2  0  0  0
 91 93  1  0  0  0
 93 90  1  0  0  0
 90103  1  0  0  0
103104  1  0  0  0
104105  1  0  0  0
105106  2  0  0  0
105107  1  0  0  0
 90 86  1  0  0  0
 86 87  2  0  0  0
 86 88  1  0  0  0
 88 85  1  0  0  0
 85110  1  0  0  0
110111  1  0  0  0
111112  1  0  0  0
112113  2  0  0  0
112114  1  0  0  0
 85 81  1  0  0  0
 81 82  2  0  0  0
 81 83  1  0  0  0
 83 79  1  0  0  0
 79 80  1  0  0  0
 79 75  1  0  0  0
 75 76  2  0  0  0
 75 77  1  0  0  0
 77 74  1  0  0  0
 74117  1  0  0  0
117118  1  0  0  0
 74 70  1  0  0  0
 70 71  2  0  0  0
 70 72  1  0  0  0
 72 69  1  0  0  0
 69120  1  0  0  0
120121  1  0  0  0
121122  2  0  0  0
122123  1  0  0  0
123124  2  0  0  0
124125  1  0  0  0
 69 65  1  0  0  0
 65 66  2  0  0  0
 65 67  1  0  0  0
 67  1  1  0  0  0
  1  2  1  0  0  0
  2  3  2  0  0  0
  3  4  1  0  0  0
  4  5  2  0  0  0
  5  6  1  0  0  0
  5  7  1  0  0  0
  7  8  2  0  0  0
  1 10  1  0  0  0
 10 11  2  0  0  0
 10 12  1  0  0  0
 12 14  1  0  0  0
 14 58  1  0  0  0
 58 59  1  0  0  0
 59 60  1  0  0  0
 60 61  1  0  0  0
 61 62  1  0  0  0
 14 15  1  0  0  0
 15 16  2  0  0  0
 15 17  1  0  0  0
 17 19  1  0  0  0
 19 51  1  0  0  0
 51 52  1  0  0  0
 52 53  1  0  0  0
 53 54  2  0  0  0
 53 55  1  0  0  0
 19 20  1  0  0  0
 20 21  2  0  0  0
 20 22  1  0  0  0
 22 24  1  0  0  0
 24 44  1  0  0  0
 44 45  1  0  0  0
 45 46  2  0  0  0
 46 47  1  0  0  0
 47 48  2  0  0  0
 48 49  1  0  0  0
 24 25  1  0  0  0
 25 26  2  0  0  0
 25 27  1  0  0  0
 27 29  1  0  0  0
 29 41  1  0  0  0
 41 42  1  0  0  0
 29 30  1  0  0  0
 30 31  2  0  0  0
 30 32  1  0  0  0
 32 33  1  0  0  0
 33 34  1  0  0  0
 34 35  1  0  0  0
 35 36  1  0  0  0
 36 37  1  0  0  0
 37 38  1  0  0  0
 37 39  2  0  0  0
 96 99  1  0  0  0
 99100  1  0  0  0
 99101  1  0  0  0
125121  1  0  0  0
  8  2  1  0  0  0
 49 45  1  0  0  0
 36 32  1  0  0  0
 95 97  1  0  0  0
 95 98  1  0  0  0
 93 94  1  0  0  0
107108  1  0  0  0
107109  1  0  0  0
 88 89  1  0  0  0
114115  1  0  0  0
114116  1  0  0  0
 83 84  1  0  0  0
 77 78  1  0  0  0
118119  1  0  0  0
 72 73  1  0  0  0
125126  1  0  0  0
 67 68  1  0  0  0
  6  9  1  0  0  0
 12 13  1  0  0  0
 62 63  1  0  0  0
 62 64  1  0  0  0
 17 18  1  0  0  0
 55 56  1  0  0  0
 55 57  1  0  0  0
 22 23  1  0  0  0
 49 50  1  0  0  0
 27 28  1  0  0  0
 42 43  1  0  0  0
 38 40  1  0  0  0
100102  1  0  0  0
M  END
> <minimizedAffinity>
-5.85644

$$$$



126129  0  0  0  0  0  0  0  0999 V2000
   25.7087   -3.0234   17.0818 C   0  0  0  0  0  0  0  0  0  0  0  0
   25.7456   -2.0323   15.9416 C   0  0  0  0  0  0  0  0  0  0  0  0
   26.6667   -0.9694   15.9363 C   0  0  0  0  0  0  0  0  0  0  0  0
   26.7238   -0.0891   14.8532 C   0  0  0  0  0  0  0  0  0  0  0  0
   25.8493   -0.2451   13.7704 C   0  0  0  0  0  0  0  0  0  0  0  0
   25.9160    0.6372   12.6927 O   0  0  0  0  0  0  0  0  0  0  0  0
   24.9183   -1.2906   13.7751 C   0  0  0  0  0  0  0  0  0  0  0  0
   24.8746   -2.1836   14.8509 C   0  0  0  0  0  0  0  0  0  0  0  0
   25.2646    0.5712   11.9192 H   0  0  0  0  0  0  0  0  0  0  0  0
   26.8138   -4.0376   16.9424 C   0  0  0  0  0  0  0  0  0  0  0  0
   27.6238   -4.2345   17.8861 O   0  0  0  0  0  0  0  0  0  0  0  0
   26.9721   -4.7542   15.7102 N   0  0  0  0  0  0  0  0  0  0  0  0
   26.0985   -5.1082   15.2564 H   0  0  0  0  0  0  0  0  0  0  0  0
   28.1760   -4.6984   14.8648 C   0  0  0  0  0  0  0  0  0  0  0  0
   29.1895   -5.6914   15.3827 C   0  0  0  0  0  0  0  0  0  0  0  0
   30.3841   -5.3365   15.5960 O   0  0  0  0  0  0  0  0  0  0  0  0
   28.7906   -7.0486   15.6202 N   0  0  0  0  0  0  0  0  0  0  0  0
   27.7672   -7.2623   15.6419 H   0  0  0  0  0  0  0  0  0  0  0  0
   29.7232   -8.1683   15.4481 C   0  0  0  0  0  0  0  0  0  0  0  0
   29.3095   -9.3196   16.3329 C   0  0  0  0  0  0  0  0  0  0  0  0
   30.1186  -10.2619   16.5421 O   0  0  0  0  0  0  0  0  0  0  0  0
   28.0271   -9.3107   16.9867 N   0  0  0  0  0  0  0  0  0  0  0  0
   27.4208   -8.4688   16.8404 H   0  0  0  0  0  0  0  0  0  0  0  0
   27.6870  -10.2742   18.0470 C   0  0  0  0  0  0  0  0  0  0  0  0
   26.9143  -11.4604   17.5063 C   0  0  0  0  0  0  0  0  0  0  0  0
   26.2076  -11.3180   16.4714 O   0  0  0  0  0  0  0  0  0  0  0  0
   26.8453  -12.7128   18.2148 N   0  0  0  0  0  0  0  0  0  0  0  0
   25.9123  -13.1893   18.2132 H   0  0  0  0  0  0  0  0  0  0  0  0
   27.9942  -13.5341   18.6385 C   0  0  0  0  0  0  0  0  0  0  0  0
   27.8547  -13.9879   20.0742 C   0  0  0  0  0  0  0  0  0  0  0  0
   27.7913  -15.2133   20.3419 O   0  0  0  0  0  0  0  0  0  0  0  0
   27.6627  -13.0430   21.1358 N   0  0  0  0  0  0  0  0  0  0  0  0
   28.7595  -12.5171   21.9298 C   0  0  0  0  0  0  0  0  0  0  0  0
   28.1185  -11.9398   23.1833 C   0  0  0  0  0  0  0  0  0  0  0  0
   26.6428  -11.7498   22.8388 C   0  0  0  0  0  0  0  0  0  0  0  0
   26.3559  -12.7287   21.6989 C   0  0  0  0  0  0  0  0  0  0  0  0
   25.6734  -13.9691   22.2070 C   0  0  0  0  0  0  0  0  0  0  0  0
   24.9398  -14.7568   21.3315 O   0  0  0  0  0  0  0  0  0  0  0  0
   25.7398  -14.2756   23.4277 O   0  0  0  0  0  0  0  0  0  0  0  0
   24.4604  -15.5876   21.6564 H   0  0  0  0  0  0  0  0  0  0  0  0
   28.2372  -14.7001   17.6586 C   0  0  0  0  0  0  0  0  0  0  0  0
   26.7038  -15.2181   16.8155 S   0  0  0  0  0  0  0  0  0  0  0  0
   26.4348  -13.9636   16.2488 H   0  0  0  0  0  0  0  0  0  0  0  0
   26.8944   -9.5620   19.1644 C   0  0  0  0  0  0  0  0  0  0  0  0
   27.7721   -9.1219   20.3077 C   0  0  0  0  0  0  0  0  0  0  0  0
   29.1410   -9.2410   20.3829 C   0  0  0  0  0  0  0  0  0  0  0  0
   29.5616   -8.7696   21.5726 N   0  0  0  0  0  0  0  0  0  0  0  0
   28.4293   -8.3841   22.1991 C   0  0  0  0  0  0  0  0  0  0  0  0
   27.3253   -8.5847   21.4567 N   0  0  0  0  0  0  0  0  0  0  0  0
   26.3349   -8.4063   21.7356 H   0  0  0  0  0  0  0  0  0  0  0  0
   29.7414   -8.6205   13.9724 C   0  0  0  0  0  0  0  0  0  0  0  0
   28.4629   -9.3778   13.5748 C   0  0  0  0  0  0  0  0  0  0  0  0
   27.6749   -8.6133   12.5473 C   0  0  0  0  0  0  0  0  0  0  0  0
   27.5136   -7.3705   12.6776 O   0  0  0  0  0  0  0  0  0  0  0  0
   27.0985   -9.2882   11.4274 N   0  0  0  0  0  0  0  0  0  0  0  0
   26.5890   -8.7495   10.6918 H   0  0  0  0  0  0  0  0  0  0  0  0
   27.1647  -10.3250   11.3292 H   0  0  0  0  0  0  0  0  0  0  0  0
   28.7618   -3.2705   14.7227 C   0  0  0  0  0  0  0  0  0  0  0  0
   28.8582   -2.8165   13.2560 C   0  0  0  0  0  0  0  0  0  0  0  0
   27.6687   -3.2893   12.4009 C   0  0  0  0  0  0  0  0  0  0  0  0
   28.0511   -4.1087   11.1504 C   0  0  0  0  0  0  0  0  0  0  0  0
   26.9786   -4.1480   10.1533 N   0  0  0  0  0  0  0  0  0  0  0  0
   26.8878   -3.2000    9.7161 H   0  0  0  0  0  0  0  0  0  0  0  0
   26.0788   -4.3699   10.6267 H   0  0  0  0  0  0  0  0  0  0  0  0
   24.6570   -2.2763   19.2366 C   0  0  0  0  0  0  0  0  0  0  0  0
   23.5302   -1.9452   18.7804 O   0  0  0  0  0  0  0  0  0  0  0  0
   25.7925   -2.3263   18.3690 N   0  0  0  0  0  0  0  0  0  0  0  0
   26.7224   -2.0168   18.7364 H   0  0  0  0  0  0  0  0  0  0  0  0
   24.7736   -2.8239   20.6290 C   0  0  0  0  0  0  0  0  0  0  0  0
   25.6676   -5.1947   20.9002 C   0  0  0  0  0  0  0  0  0  0  0  0
   25.7768   -6.2687   20.2399 O   0  0  0  0  0  0  0  0  0  0  0  0
   24.6126   -4.2787   20.5610 N   0  0  0  0  0  0  0  0  0  0  0  0
   23.8521   -4.6547   19.9546 H   0  0  0  0  0  0  0  0  0  0  0  0
   26.5717   -4.9391   22.0876 C   0  0  0  0  0  0  0  0  0  0  0  0
   24.8489   -5.3036   23.9092 C   0  0  0  0  0  0  0  0  0  0  0  0
   24.3196   -6.2513   23.2652 O   0  0  0  0  0  0  0  0  0  0  0  0
   25.8315   -4.4727   23.2691 N   0  0  0  0  0  0  0  0  0  0  0  0
   26.0366   -3.5440   23.6967 H   0  0  0  0  0  0  0  0  0  0  0  0
   24.4787   -5.0454   25.3505 C   0  0  0  0  0  0  0  0  0  0  0  0
   23.1796   -4.2424   25.4057 C   0  0  0  0  0  0  0  0  0  0  0  0
   25.9976   -4.7508   27.3832 C   0  0  0  0  0  0  0  0  0  0  0  0
   25.3818   -5.6521   28.0144 O   0  0  0  0  0  0  0  0  0  0  0  0
   25.5441   -4.3383   26.0823 N   0  0  0  0  0  0  0  0  0  0  0  0
   26.0381   -3.5295   25.6492 H   0  0  0  0  0  0  0  0  0  0  0  0
   27.2128   -4.1080   28.0051 C   0  0  0  0  0  0  0  0  0  0  0  0
   28.6893   -5.7186   29.2942 C   0  0  0  0  0  0  0  0  0  0  0  0
   29.6854   -5.4062   30.0046 O   0  0  0  0  0  0  0  0  0  0  0  0
   27.5758   -4.8196   29.2349 N   0  0  0  0  0  0  0  0  0  0  0  0
   27.3148   -4.3669   30.1342 H   0  0  0  0  0  0  0  0  0  0  0  0
   28.6549   -7.1026   28.6673 C   0  0  0  0  0  0  0  0  0  0  0  0
   28.9509   -7.6115   26.2239 C   0  0  0  0  0  0  0  0  0  0  0  0
   29.4010   -8.7873   26.3106 O   0  0  0  0  0  0  0  0  0  0  0  0
   28.1569   -7.0805   27.2901 N   0  0  0  0  0  0  0  0  0  0  0  0
   27.2043   -6.7193   27.0700 H   0  0  0  0  0  0  0  0  0  0  0  0
   28.3881   -5.6097   24.9371 N   0  0  0  0  0  0  0  0  0  0  0  0
   29.3249   -6.7361   25.0466 C   0  0  0  0  0  0  0  0  0  0  0  0
   28.5899   -5.0993   24.0454 H   0  0  0  0  0  0  0  0  0  0  0  0
   27.4209   -5.9911   24.8324 H   0  0  0  0  0  0  0  0  0  0  0  0
   30.7874   -6.2469   25.1391 C   0  0  0  0  0  0  0  0  0  0  0  0
   31.2387   -6.4143   26.4633 O   0  0  0  0  0  0  0  0  0  0  0  0
   31.7235   -7.0015   24.1846 C   0  0  0  0  0  0  0  0  0  0  0  0
   32.0624   -5.8711   26.5569 H   0  0  0  0  0  0  0  0  0  0  0  0
   27.8489   -8.0915   29.5274 C   0  0  0  0  0  0  0  0  0  0  0  0
   28.3560   -8.2194   30.9750 C   0  0  0  0  0  0  0  0  0  0  0  0
   29.0376   -9.5406   31.2275 C   0  0  0  0  0  0  0  0  0  0  0  0
   30.2056   -9.5939   31.6936 O   0  0  0  0  0  0  0  0  0  0  0  0
   28.3438  -10.7553   30.9491 N   0  0  0  0  0  0  0  0  0  0  0  0
   28.7966  -11.6749   31.1368 H   0  0  0  0  0  0  0  0  0  0  0  0
   27.3569  -10.7382   30.6009 H   0  0  0  0  0  0  0  0  0  0  0  0
   27.0985   -2.5741   28.2550 C   0  0  0  0  0  0  0  0  0  0  0  0
   26.0731   -2.0897   29.3014 C   0  0  0  0  0  0  0  0  0  0  0  0
   24.6169   -2.3592   28.9986 C   0  0  0  0  0  0  0  0  0  0  0  0
   24.0565   -1.6715   28.1085 O   0  0  0  0  0  0  0  0  0  0  0  0
   23.8374   -3.3273   29.7087 N   0  0  0  0  0  0  0  0  0  0  0  0
   24.1772   -3.8017   30.5704 H   0  0  0  0  0  0  0  0  0  0  0  0
   22.8405   -3.4933   29.4330 H   0  0  0  0  0  0  0  0  0  0  0  0
   27.6581   -3.9186   21.6892 C   0  0  0  0  0  0  0  0  0  0  0  0
   28.3393   -4.3368   20.5328 O   0  0  0  0  0  0  0  0  0  0  0  0
   27.8163   -3.9939   19.7579 H   0  0  0  0  0  0  0  0  0  0  0  0
   23.7366   -2.1999   21.5810 C   0  0  0  0  0  0  0  0  0  0  0  0
   24.4177   -1.3741   22.6354 C   0  0  0  0  0  0  0  0  0  0  0  0
   25.6786   -0.8141   22.5423 C   0  0  0  0  0  0  0  0  0  0  0  0
   25.9742   -0.2001   23.7067 N   0  0  0  0  0  0  0  0  0  0  0  0
   24.8815   -0.4019   24.4792 C   0  0  0  0  0  0  0  0  0  0  0  0
   23.9169   -1.1046   23.8501 N   0  0  0  0  0  0  0  0  0  0  0  0
   22.9995   -1.4023   24.2466 H   0  0  0  0  0  0  0  0  0  0  0  0
 95 96  1  0  0  0
 96 91  1  0  0  0
 91 92  2  0  0  0
 91 93  1  0  0  0
 93 90  1  0  0  0
 90103  1  0  0  0
103104  1  0  0  0
104105  1  0  0  0
105106  2  0  0  0
105107  1  0  0  0
 90 86  1  0  0  0
 86 87  2  0  0  0
 86 88  1  0  0  0
 88 85  1  0  0  0
 85110  1  0  0  0
110111  1  0  0  0
111112  1  0  0  0
112113  2  0  0  0
112114  1  0  0  0
 85 81  1  0  0  0
 81 82  2  0  0  0
 81 83  1  0  0  0
 83 79  1  0  0  0
 79 80  1  0  0  0
 79 75  1  0  0  0
 75 76  2  0  0  0
 75 77  1  0  0  0
 77 74  1  0  0  0
 74117  1  0  0  0
117118  1  0  0  0
 74 70  1  0  0  0
 70 71  2  0  0  0
 70 72  1  0  0  0
 72 69  1  0  0  0
 69120  1  0  0  0
120121  1  0  0  0
121122  2  0  0  0
122123  1  0  0  0
123124  2  0  0  0
124125  1  0  0  0
 69 65  1  0  0  0
 65 66  2  0  0  0
 65 67  1  0  0  0
 67  1  1  0  0  0
  1  2  1  0  0  0
  2  3  2  0  0  0
  3  4  1  0  0  0
  4  5  2  0  0  0
  5  6  1  0  0  0
  5  7  1  0  0  0
  7  8  2  0  0  0
  1 10  1  0  0  0
 10 11  2  0  0  0
 10 12  1  0  0  0
 12 14  1  0  0  0
 14 58  1  0  0  0
 58 59  1  0  0  0
 59 60  1  0  0  0
 60 61  1  0  0  0
 61 62  1  0  0  0
 14 15  1  0  0  0
 15 16  2  0  0  0
 15 17  1  0  0  0
 17 19  1  0  0  0
 19 51  1  0  0  0
 51 52  1  0  0  0
 52 53  1  0  0  0
 53 54  2  0  0  0
 53 55  1  0  0  0
 19 20  1  0  0  0
 20 21  2  0  0  0
 20 22  1  0  0  0
 22 24  1  0  0  0
 24 44  1  0  0  0
 44 45  1  0  0  0
 45 46  2  0  0  0
 46 47  1  0  0  0
 47 48  2  0  0  0
 48 49  1  0  0  0
 24 25  1  0  0  0
 25 26  2  0  0  0
 25 27  1  0  0  0
 27 29  1  0  0  0
 29 41  1  0  0  0
 41 42  1  0  0  0
 29 30  1  0  0  0
 30 31  2  0  0  0
 30 32  1  0  0  0
 32 33  1  0  0  0
 33 34  1  0  0  0
 34 35  1  0  0  0
 35 36  1  0  0  0
 36 37  1  0  0  0
 37 38  1  0  0  0
 37 39  2  0  0  0
 96 99  1  0  0  0
 99100  1  0  0  0
 99101  1  0  0  0
125121  1  0  0  0
  8  2  1  0  0  0
 49 45  1  0  0  0
 36 32  1  0  0  0
 95 97  1  0  0  0
 95 98  1  0  0  0
 93 94  1  0  0  0
107108  1  0  0  0
107109  1  0  0  0
 88 89  1  0  0  0
114115  1  0  0  0
114116  1  0  0  0
 83 84  1  0  0  0
 77 78  1  0  0  0
118119  1  0  0  0
 72 73  1  0  0  0
125126  1  0  0  0
 67 68  1  0  0  0
  6  9  1  0  0  0
 12 13  1  0  0  0
 62 63  1  0  0  0
 62 64  1  0  0  0
 17 18  1  0  0  0
 55 56  1  0  0  0
 55 57  1  0  0  0
 22 23  1  0  0  0
 49 50  1  0  0  0
 27 28  1  0  0  0
 42 43  1  0  0  0
 38 40  1  0  0  0
100102  1  0  0  0
M  END
> <minimizedAffinity>
-5.81009

$$$$



126129  0  0  0  0  0  0  0  0999 V2000
    5.9169   -0.0874   24.6049 C   0  0  0  0  0  0  0  0  0  0  0  0
    5.7259   -0.2404   26.0961 C   0  0  0  0  0  0  0  0  0  0  0  0
    6.6986    0.2208   27.0013 C   0  0  0  0  0  0  0  0  0  0  0  0
    6.4879    0.1179   28.3784 C   0  0  0  0  0  0  0  0  0  0  0  0
    5.3132   -0.4646   28.8708 C   0  0  0  0  0  0  0  0  0  0  0  0
    5.1108   -0.5601   30.2471 O   0  0  0  0  0  0  0  0  0  0  0  0
    4.3470   -0.9410   27.9766 C   0  0  0  0  0  0  0  0  0  0  0  0
    4.5497   -0.8202   26.5979 C   0  0  0  0  0  0  0  0  0  0  0  0
    4.2899   -1.0173   30.6265 H   0  0  0  0  0  0  0  0  0  0  0  0
    7.0068    0.9087   24.3065 C   0  0  0  0  0  0  0  0  0  0  0  0
    7.1757    1.9127   25.0474 O   0  0  0  0  0  0  0  0  0  0  0  0
    7.8312    0.7366   23.1457 N   0  0  0  0  0  0  0  0  0  0  0  0
    8.1656   -0.2343   22.9460 H   0  0  0  0  0  0  0  0  0  0  0  0
    7.9214    1.7036   22.0393 C   0  0  0  0  0  0  0  0  0  0  0  0
    6.8089    2.7160   22.1764 C   0  0  0  0  0  0  0  0  0  0  0  0
    5.7180    2.5581   21.5569 O   0  0  0  0  0  0  0  0  0  0  0  0
    7.0023    3.8694   23.0069 N   0  0  0  0  0  0  0  0  0  0  0  0
    7.8142    3.8687   23.6658 H   0  0  0  0  0  0  0  0  0  0  0  0
    6.3664    5.1559   22.7009 C   0  0  0  0  0  0  0  0  0  0  0  0
    5.0084    5.2246   23.3569 C   0  0  0  0  0  0  0  0  0  0  0  0
    4.8908    5.7801   24.4811 O   0  0  0  0  0  0  0  0  0  0  0  0
    3.8449    4.7196   22.6761 N   0  0  0  0  0  0  0  0  0  0  0  0
    3.9838    4.3351   21.7114 H   0  0  0  0  0  0  0  0  0  0  0  0
    2.4808    4.9919   23.1591 C   0  0  0  0  0  0  0  0  0  0  0  0
    1.8806    3.7920   23.8636 C   0  0  0  0  0  0  0  0  0  0  0  0
    2.4028    2.6553   23.7021 O   0  0  0  0  0  0  0  0  0  0  0  0
    0.6460    3.8791   24.6008 N   0  0  0  0  0  0  0  0  0  0  0  0
   -0.0114    3.0708   24.4908 H   0  0  0  0  0  0  0  0  0  0  0  0
    0.3682    4.7952   25.7222 C   0  0  0  0  0  0  0  0  0  0  0  0
    1.5197    4.8416   26.7013 C   0  0  0  0  0  0  0  0  0  0  0  0
    2.3993    5.7317   26.5943 O   0  0  0  0  0  0  0  0  0  0  0  0
    1.7038    3.8095   27.6799 N   0  0  0  0  0  0  0  0  0  0  0  0
    1.1957    3.9114   29.0369 C   0  0  0  0  0  0  0  0  0  0  0  0
    1.9658    2.8751   29.8421 C   0  0  0  0  0  0  0  0  0  0  0  0
    2.5533    1.9108   28.8139 C   0  0  0  0  0  0  0  0  0  0  0  0
    2.6328    2.7003   27.5061 C   0  0  0  0  0  0  0  0  0  0  0  0
    4.0298    3.1989   27.2567 C   0  0  0  0  0  0  0  0  0  0  0  0
    4.5809    3.0918   25.9879 O   0  0  0  0  0  0  0  0  0  0  0  0
    4.7095    3.6827   28.2014 O   0  0  0  0  0  0  0  0  0  0  0  0
    5.5251    3.4077   25.8025 H   0  0  0  0  0  0  0  0  0  0  0  0
   -0.0462    6.1906   25.2124 C   0  0  0  0  0  0  0  0  0  0  0  0
   -1.5107    6.1166   24.1261 S   0  0  0  0  0  0  0  0  0  0  0  0
   -2.3499    5.5175   25.0770 H   0  0  0  0  0  0  0  0  0  0  0  0
    1.5905    5.4427   21.9808 C   0  0  0  0  0  0  0  0  0  0  0  0
    1.9443    4.7513   20.6892 C   0  0  0  0  0  0  0  0  0  0  0  0
    1.4754    3.5316   20.2575 C   0  0  0  0  0  0  0  0  0  0  0  0
    2.0464    3.2314   19.0750 N   0  0  0  0  0  0  0  0  0  0  0  0
    2.8618    4.2775   18.8218 C   0  0  0  0  0  0  0  0  0  0  0  0
    2.8220    5.2177   19.7834 N   0  0  0  0  0  0  0  0  0  0  0  0
    3.3880    6.0937   19.8350 H   0  0  0  0  0  0  0  0  0  0  0  0
    7.2513    6.3168   23.2028 C   0  0  0  0  0  0  0  0  0  0  0  0
    8.5380    6.4742   22.3748 C   0  0  0  0  0  0  0  0  0  0  0  0
    9.7502    6.0804   23.1727 C   0  0  0  0  0  0  0  0  0  0  0  0
    9.9004    4.8833   23.5361 O   0  0  0  0  0  0  0  0  0  0  0  0
   10.7300    7.0570   23.5309 N   0  0  0  0  0  0  0  0  0  0  0  0
   11.5928    6.7740   24.0471 H   0  0  0  0  0  0  0  0  0  0  0  0
   10.5985    8.0651   23.2960 H   0  0  0  0  0  0  0  0  0  0  0  0
    7.9491    1.0365   20.6405 C   0  0  0  0  0  0  0  0  0  0  0  0
    7.5308   -0.4432   20.6851 C   0  0  0  0  0  0  0  0  0  0  0  0
    6.1181   -0.6857   20.1235 C   0  0  0  0  0  0  0  0  0  0  0  0
    5.6806    0.2960   19.0162 C   0  0  0  0  0  0  0  0  0  0  0  0
    5.7950   -0.2810   17.6746 N   0  0  0  0  0  0  0  0  0  0  0  0
    5.0549   -1.0134   17.5568 H   0  0  0  0  0  0  0  0  0  0  0  0
    6.7220   -0.7441   17.5789 H   0  0  0  0  0  0  0  0  0  0  0  0
    7.2237   -2.2309   24.5361 C   0  0  0  0  0  0  0  0  0  0  0  0
    8.3599   -1.7565   24.8035 O   0  0  0  0  0  0  0  0  0  0  0  0
    6.2073   -1.3864   23.9900 N   0  0  0  0  0  0  0  0  0  0  0  0
    5.5617   -1.7777   23.2650 H   0  0  0  0  0  0  0  0  0  0  0  0
    6.8628   -3.6170   24.9841 C   0  0  0  0  0  0  0  0  0  0  0  0
    6.2449   -4.1261   27.4033 C   0  0  0  0  0  0  0  0  0  0  0  0
    6.3165   -3.5988   28.5514 O   0  0  0  0  0  0  0  0  0  0  0  0
    7.2036   -3.7397   26.4039 N   0  0  0  0  0  0  0  0  0  0  0  0
    8.0474   -3.2312   26.7459 H   0  0  0  0  0  0  0  0  0  0  0  0
    5.2299   -5.2163   27.1314 C   0  0  0  0  0  0  0  0  0  0  0  0
    2.7830   -5.1585   26.4771 C   0  0  0  0  0  0  0  0  0  0  0  0
    3.0532   -5.5376   25.3040 O   0  0  0  0  0  0  0  0  0  0  0  0
    3.8481   -4.7692   27.3599 N   0  0  0  0  0  0  0  0  0  0  0  0
    3.6027   -4.1957   28.1955 H   0  0  0  0  0  0  0  0  0  0  0  0
    1.3562   -5.1295   26.9718 C   0  0  0  0  0  0  0  0  0  0  0  0
    0.8418   -6.5604   27.1247 C   0  0  0  0  0  0  0  0  0  0  0  0
   -0.6411   -3.5909   26.5601 C   0  0  0  0  0  0  0  0  0  0  0  0
   -0.9911   -3.6683   27.7690 O   0  0  0  0  0  0  0  0  0  0  0  0
    0.4707   -4.3646   26.0766 N   0  0  0  0  0  0  0  0  0  0  0  0
    0.6562   -4.3276   25.0519 H   0  0  0  0  0  0  0  0  0  0  0  0
   -1.3995   -2.6813   25.6251 C   0  0  0  0  0  0  0  0  0  0  0  0
   -2.6503   -4.5053   24.3824 C   0  0  0  0  0  0  0  0  0  0  0  0
   -3.0659   -5.5900   24.8773 O   0  0  0  0  0  0  0  0  0  0  0  0
   -2.6445   -3.3309   25.2025 N   0  0  0  0  0  0  0  0  0  0  0  0
   -3.4710   -3.2110   25.8223 H   0  0  0  0  0  0  0  0  0  0  0  0
   -2.3290   -4.4651   22.8975 C   0  0  0  0  0  0  0  0  0  0  0  0
   -0.4865   -5.7238   21.7407 C   0  0  0  0  0  0  0  0  0  0  0  0
   -0.9761   -5.7858   20.5793 O   0  0  0  0  0  0  0  0  0  0  0  0
   -0.9058   -4.6810   22.6273 N   0  0  0  0  0  0  0  0  0  0  0  0
   -0.1808   -4.0559   23.0396 H   0  0  0  0  0  0  0  0  0  0  0  0
    0.7459   -6.6131   23.6564 N   0  0  0  0  0  0  0  0  0  0  0  0
    0.4648   -6.7969   22.2262 C   0  0  0  0  0  0  0  0  0  0  0  0
    1.5014   -7.2835   23.9321 H   0  0  0  0  0  0  0  0  0  0  0  0
    1.1491   -5.6592   23.7959 H   0  0  0  0  0  0  0  0  0  0  0  0
   -0.0751   -8.2147   21.9348 C   0  0  0  0  0  0  0  0  0  0  0  0
    0.3055   -8.5856   20.6299 O   0  0  0  0  0  0  0  0  0  0  0  0
    0.4446   -9.2604   22.9315 C   0  0  0  0  0  0  0  0  0  0  0  0
   -0.2540   -9.3638   20.3777 H   0  0  0  0  0  0  0  0  0  0  0  0
   -2.8195   -3.1588   22.2493 C   0  0  0  0  0  0  0  0  0  0  0  0
   -3.4801   -3.3530   20.8727 C   0  0  0  0  0  0  0  0  0  0  0  0
   -2.7083   -2.6767   19.7678 C   0  0  0  0  0  0  0  0  0  0  0  0
   -2.8740   -1.4562   19.5083 O   0  0  0  0  0  0  0  0  0  0  0  0
   -1.7603   -3.4262   19.0102 N   0  0  0  0  0  0  0  0  0  0  0  0
   -1.2070   -2.9662   18.2565 H   0  0  0  0  0  0  0  0  0  0  0  0
   -1.5737   -4.4315   19.2340 H   0  0  0  0  0  0  0  0  0  0  0  0
   -0.5894   -2.1648   24.3982 C   0  0  0  0  0  0  0  0  0  0  0  0
   -0.7104   -0.6705   24.0330 C   0  0  0  0  0  0  0  0  0  0  0  0
    0.0073    0.3077   24.9346 C   0  0  0  0  0  0  0  0  0  0  0  0
   -0.6209    1.3195   25.3356 O   0  0  0  0  0  0  0  0  0  0  0  0
    1.3796    0.1585   25.3139 N   0  0  0  0  0  0  0  0  0  0  0  0
    2.0103   -0.5467   24.8806 H   0  0  0  0  0  0  0  0  0  0  0  0
    1.8149    0.8517   25.9677 H   0  0  0  0  0  0  0  0  0  0  0  0
    5.5556   -6.4442   28.0070 C   0  0  0  0  0  0  0  0  0  0  0  0
    4.7196   -7.5270   27.6832 O   0  0  0  0  0  0  0  0  0  0  0  0
    5.1653   -8.0142   26.9378 H   0  0  0  0  0  0  0  0  0  0  0  0
    7.5800   -4.6955   24.1514 C   0  0  0  0  0  0  0  0  0  0  0  0
    6.6198   -5.3551   23.2024 C   0  0  0  0  0  0  0  0  0  0  0  0
    6.8331   -5.5815   21.8551 C   0  0  0  0  0  0  0  0  0  0  0  0
    5.7245   -6.1348   21.3212 N   0  0  0  0  0  0  0  0  0  0  0  0
    4.8640   -6.2322   22.3612 C   0  0  0  0  0  0  0  0  0  0  0  0
    5.3853   -5.7740   23.5180 N   0  0  0  0  0  0  0  0  0  0  0  0
    4.9079   -5.7246   24.4438 H   0  0  0  0  0  0  0  0  0  0  0  0
 95 96  1  0  0  0
 96 91  1  0  0  0
 91 92  2  0  0  0
 91 93  1  0  0  0
 93 90  1  0  0  0
 90103  1  0  0  0
103104  1  0  0  0
104105  1  0  0  0
105106  2  0  0  0
105107  1  0  0  0
 90 86  1  0  0  0
 86 87  2  0  0  0
 86 88  1  0  0  0
 88 85  1  0  0  0
 85110  1  0  0  0
110111  1  0  0  0
111112  1  0  0  0
112113  2  0  0  0
112114  1  0  0  0
 85 81  1  0  0  0
 81 82  2  0  0  0
 81 83  1  0  0  0
 83 79  1  0  0  0
 79 80  1  0  0  0
 79 75  1  0  0  0
 75 76  2  0  0  0
 75 77  1  0  0  0
 77 74  1  0  0  0
 74117  1  0  0  0
117118  1  0  0  0
 74 70  1  0  0  0
 70 71  2  0  0  0
 70 72  1  0  0  0
 72 69  1  0  0  0
 69120  1  0  0  0
120121  1  0  0  0
121122  2  0  0  0
122123  1  0  0  0
123124  2  0  0  0
124125  1  0  0  0
 69 65  1  0  0  0
 65 66  2  0  0  0
 65 67  1  0  0  0
 67  1  1  0  0  0
  1  2  1  0  0  0
  2  3  2  0  0  0
  3  4  1  0  0  0
  4  5  2  0  0  0
  5  6  1  0  0  0
  5  7  1  0  0  0
  7  8  2  0  0  0
  1 10  1  0  0  0
 10 11  2  0  0  0
 10 12  1  0  0  0
 12 14  1  0  0  0
 14 58  1  0  0  0
 58 59  1  0  0  0
 59 60  1  0  0  0
 60 61  1  0  0  0
 61 62  1  0  0  0
 14 15  1  0  0  0
 15 16  2  0  0  0
 15 17  1  0  0  0
 17 19  1  0  0  0
 19 51  1  0  0  0
 51 52  1  0  0  0
 52 53  1  0  0  0
 53 54  2  0  0  0
 53 55  1  0  0  0
 19 20  1  0  0  0
 20 21  2  0  0  0
 20 22  1  0  0  0
 22 24  1  0  0  0
 24 44  1  0  0  0
 44 45  1  0  0  0
 45 46  2  0  0  0
 46 47  1  0  0  0
 47 48  2  0  0  0
 48 49  1  0  0  0
 24 25  1  0  0  0
 25 26  2  0  0  0
 25 27  1  0  0  0
 27 29  1  0  0  0
 29 41  1  0  0  0
 41 42  1  0  0  0
 29 30  1  0  0  0
 30 31  2  0  0  0
 30 32  1  0  0  0
 32 33  1  0  0  0
 33 34  1  0  0  0
 34 35  1  0  0  0
 35 36  1  0  0  0
 36 37  1  0  0  0
 37 38  1  0  0  0
 37 39  2  0  0  0
 96 99  1  0  0  0
 99100  1  0  0  0
 99101  1  0  0  0
125121  1  0  0  0
  8  2  1  0  0  0
 49 45  1  0  0  0
 36 32  1  0  0  0
 95 97  1  0  0  0
 95 98  1  0  0  0
 93 94  1  0  0  0
107108  1  0  0  0
107109  1  0  0  0
 88 89  1  0  0  0
114115  1  0  0  0
114116  1  0  0  0
 83 84  1  0  0  0
 77 78  1  0  0  0
118119  1  0  0  0
 72 73  1  0  0  0
125126  1  0  0  0
 67 68  1  0  0  0
  6  9  1  0  0  0
 12 13  1  0  0  0
 62 63  1  0  0  0
 62 64  1  0  0  0
 17 18  1  0  0  0
 55 56  1  0  0  0
 55 57  1  0  0  0
 22 23  1  0  0  0
 49 50  1  0  0  0
 27 28  1  0  0  0
 42 43  1  0  0  0
 38 40  1  0  0  0
100102  1  0  0  0
M  END
> <minimizedAffinity>
-5.78798

$$$$



126129  0  0  0  0  0  0  0  0999 V2000
   26.7211  -14.2393   22.8918 C   0  0  0  0  0  0  0  0  0  0  0  0
   25.9114  -14.4660   24.1475 C   0  0  0  0  0  0  0  0  0  0  0  0
   24.5854  -14.0074   24.2461 C   0  0  0  0  0  0  0  0  0  0  0  0
   23.8315  -14.2665   25.3932 C   0  0  0  0  0  0  0  0  0  0  0  0
   24.3965  -14.9687   26.4652 C   0  0  0  0  0  0  0  0  0  0  0  0
   23.6349  -15.2248   27.6047 O   0  0  0  0  0  0  0  0  0  0  0  0
   25.7210  -15.4145   26.3819 C   0  0  0  0  0  0  0  0  0  0  0  0
   26.4693  -15.1718   25.2253 C   0  0  0  0  0  0  0  0  0  0  0  0
   24.0356  -15.6915   28.4100 H   0  0  0  0  0  0  0  0  0  0  0  0
   26.8821  -15.5241   22.1221 C   0  0  0  0  0  0  0  0  0  0  0  0
   27.6410  -15.5776   21.1188 O   0  0  0  0  0  0  0  0  0  0  0  0
   26.1329  -16.6845   22.5078 N   0  0  0  0  0  0  0  0  0  0  0  0
   26.0689  -16.8839   23.5328 H   0  0  0  0  0  0  0  0  0  0  0  0
   25.1597  -17.3713   21.6426 C   0  0  0  0  0  0  0  0  0  0  0  0
   23.9433  -17.7361   22.4602 C   0  0  0  0  0  0  0  0  0  0  0  0
   23.0986  -16.8523   22.7827 O   0  0  0  0  0  0  0  0  0  0  0  0
   23.7572  -19.0945   22.8815 N   0  0  0  0  0  0  0  0  0  0  0  0
   24.3438  -19.8329   22.4295 H   0  0  0  0  0  0  0  0  0  0  0  0
   23.0878  -19.4259   24.1445 C   0  0  0  0  0  0  0  0  0  0  0  0
   23.3052  -20.8837   24.4719 C   0  0  0  0  0  0  0  0  0  0  0  0
   22.4706  -21.4868   25.1972 O   0  0  0  0  0  0  0  0  0  0  0  0
   24.4200  -21.5980   23.9071 N   0  0  0  0  0  0  0  0  0  0  0  0
   25.0431  -21.0711   23.2499 H   0  0  0  0  0  0  0  0  0  0  0  0
   24.5282  -23.0642   23.9906 C   0  0  0  0  0  0  0  0  0  0  0  0
   25.5569  -23.4975   25.0156 C   0  0  0  0  0  0  0  0  0  0  0  0
   26.7832  -23.4197   24.7316 O   0  0  0  0  0  0  0  0  0  0  0  0
   25.1802  -24.1302   26.2537 N   0  0  0  0  0  0  0  0  0  0  0  0
   25.7865  -24.9261   26.5646 H   0  0  0  0  0  0  0  0  0  0  0  0
   24.2649  -23.5754   27.2679 C   0  0  0  0  0  0  0  0  0  0  0  0
   23.1160  -24.5159   27.5546 C   0  0  0  0  0  0  0  0  0  0  0  0
   23.3365  -25.6335   28.0836 O   0  0  0  0  0  0  0  0  0  0  0  0
   21.7837  -24.2149   27.1173 N   0  0  0  0  0  0  0  0  0  0  0  0
   20.8060  -23.5572   27.9666 C   0  0  0  0  0  0  0  0  0  0  0  0
   19.4541  -23.8317   27.3243 C   0  0  0  0  0  0  0  0  0  0  0  0
   19.7598  -24.2449   25.8862 C   0  0  0  0  0  0  0  0  0  0  0  0
   21.1967  -24.7694   25.9043 C   0  0  0  0  0  0  0  0  0  0  0  0
   21.2258  -26.2731   25.9278 C   0  0  0  0  0  0  0  0  0  0  0  0
   22.3728  -26.9441   25.5288 O   0  0  0  0  0  0  0  0  0  0  0  0
   20.2038  -26.9226   26.2774 O   0  0  0  0  0  0  0  0  0  0  0  0
   22.4079  -27.9562   25.5230 H   0  0  0  0  0  0  0  0  0  0  0  0
   25.0305  -23.1540   28.5387 C   0  0  0  0  0  0  0  0  0  0  0  0
   23.9062  -22.8125   29.9350 S   0  0  0  0  0  0  0  0  0  0  0  0
   23.3188  -24.0862   29.9456 H   0  0  0  0  0  0  0  0  0  0  0  0
   24.8588  -23.6430   22.5979 C   0  0  0  0  0  0  0  0  0  0  0  0
   23.8763  -23.2079   21.5410 C   0  0  0  0  0  0  0  0  0  0  0  0
   22.5442  -23.5463   21.4715 C   0  0  0  0  0  0  0  0  0  0  0  0
   22.0052  -22.9968   20.3660 N   0  0  0  0  0  0  0  0  0  0  0  0
   23.0327  -22.3438   19.7817 C   0  0  0  0  0  0  0  0  0  0  0  0
   24.1827  -22.4526   20.4714 N   0  0  0  0  0  0  0  0  0  0  0  0
   25.1182  -22.0728   20.2048 H   0  0  0  0  0  0  0  0  0  0  0  0
   23.6402  -18.5438   25.2842 C   0  0  0  0  0  0  0  0  0  0  0  0
   22.5285  -18.0053   26.2010 C   0  0  0  0  0  0  0  0  0  0  0  0
   22.4756  -18.7663   27.4968 C   0  0  0  0  0  0  0  0  0  0  0  0
   23.5406  -19.0147   28.1225 O   0  0  0  0  0  0  0  0  0  0  0  0
   21.2253  -19.2192   28.0201 N   0  0  0  0  0  0  0  0  0  0  0  0
   21.1854  -19.7091   28.9417 H   0  0  0  0  0  0  0  0  0  0  0  0
   20.3366  -19.0807   27.4910 H   0  0  0  0  0  0  0  0  0  0  0  0
   25.7571  -18.5877   20.8903 C   0  0  0  0  0  0  0  0  0  0  0  0
   26.9714  -19.1914   21.6167 C   0  0  0  0  0  0  0  0  0  0  0  0
   28.1477  -19.4946   20.6712 C   0  0  0  0  0  0  0  0  0  0  0  0
   28.4926  -20.9912   20.5207 C   0  0  0  0  0  0  0  0  0  0  0  0
   27.3058  -21.8492   20.5581 N   0  0  0  0  0  0  0  0  0  0  0  0
   26.7591  -21.7095   19.6752 H   0  0  0  0  0  0  0  0  0  0  0  0
   26.7025  -21.5645   21.3569 H   0  0  0  0  0  0  0  0  0  0  0  0
   26.6949  -11.9060   21.9631 C   0  0  0  0  0  0  0  0  0  0  0  0
   27.0486  -11.2942   23.0061 O   0  0  0  0  0  0  0  0  0  0  0  0
   26.0995  -13.2023   22.0623 N   0  0  0  0  0  0  0  0  0  0  0  0
   25.3243  -13.4532   21.4054 H   0  0  0  0  0  0  0  0  0  0  0  0
   27.0875  -11.3809   20.6131 C   0  0  0  0  0  0  0  0  0  0  0  0
   26.0128   -9.0727   20.7184 C   0  0  0  0  0  0  0  0  0  0  0  0
   24.8782   -8.5412   20.8959 O   0  0  0  0  0  0  0  0  0  0  0  0
   26.0757  -10.4088   20.1909 N   0  0  0  0  0  0  0  0  0  0  0  0
   25.2004  -10.7762   19.7592 H   0  0  0  0  0  0  0  0  0  0  0  0
   27.2731   -8.2699   20.9634 C   0  0  0  0  0  0  0  0  0  0  0  0
   29.1953   -8.9421   22.4708 C   0  0  0  0  0  0  0  0  0  0  0  0
   29.7898   -9.5120   21.5145 O   0  0  0  0  0  0  0  0  0  0  0  0
   27.8377   -8.5022   22.3008 N   0  0  0  0  0  0  0  0  0  0  0  0
   27.2779   -8.3082   23.1589 H   0  0  0  0  0  0  0  0  0  0  0  0
   29.8997   -8.6972   23.7842 C   0  0  0  0  0  0  0  0  0  0  0  0
   30.5875   -9.9836   24.2399 C   0  0  0  0  0  0  0  0  0  0  0  0
   29.0396   -6.8806   25.3610 C   0  0  0  0  0  0  0  0  0  0  0  0
   29.9949   -6.1169   25.0544 O   0  0  0  0  0  0  0  0  0  0  0  0
   28.9798   -8.2156   24.8294 N   0  0  0  0  0  0  0  0  0  0  0  0
   28.2172   -8.8284   25.1882 H   0  0  0  0  0  0  0  0  0  0  0  0
   27.9610   -6.3825   26.2912 C   0  0  0  0  0  0  0  0  0  0  0  0
   27.0394   -4.0415   26.6173 C   0  0  0  0  0  0  0  0  0  0  0  0
   27.6938   -2.9659   26.5208 O   0  0  0  0  0  0  0  0  0  0  0  0
   27.3879   -5.1392   25.7656 N   0  0  0  0  0  0  0  0  0  0  0  0
   27.6273   -4.8892   24.7848 H   0  0  0  0  0  0  0  0  0  0  0  0
   25.8148   -4.0637   27.5169 C   0  0  0  0  0  0  0  0  0  0  0  0
   23.8303   -4.8925   26.2162 C   0  0  0  0  0  0  0  0  0  0  0  0
   23.4924   -5.8620   26.9499 O   0  0  0  0  0  0  0  0  0  0  0  0
   24.5750   -3.8079   26.7803 N   0  0  0  0  0  0  0  0  0  0  0  0
   24.1934   -2.8420   26.6916 H   0  0  0  0  0  0  0  0  0  0  0  0
   22.8692   -3.6730   24.3271 N   0  0  0  0  0  0  0  0  0  0  0  0
   23.5336   -4.9192   24.7317 C   0  0  0  0  0  0  0  0  0  0  0  0
   22.5606   -3.7728   23.3315 H   0  0  0  0  0  0  0  0  0  0  0  0
   21.9926   -3.5672   24.8859 H   0  0  0  0  0  0  0  0  0  0  0  0
   24.8086   -5.1755   23.8978 C   0  0  0  0  0  0  0  0  0  0  0  0
   24.6619   -6.3954   23.2082 O   0  0  0  0  0  0  0  0  0  0  0  0
   25.0895   -4.0528   22.8891 C   0  0  0  0  0  0  0  0  0  0  0  0
   25.5648   -6.6595   22.8963 H   0  0  0  0  0  0  0  0  0  0  0  0
   25.9641   -3.0881   28.6973 C   0  0  0  0  0  0  0  0  0  0  0  0
   24.9947   -3.3610   29.8612 C   0  0  0  0  0  0  0  0  0  0  0  0
   23.7596   -2.4988   29.7908 C   0  0  0  0  0  0  0  0  0  0  0  0
   23.5505   -1.7370   28.8108 O   0  0  0  0  0  0  0  0  0  0  0  0
   22.8000   -2.5558   30.8444 N   0  0  0  0  0  0  0  0  0  0  0  0
   21.9333   -1.9790   30.7988 H   0  0  0  0  0  0  0  0  0  0  0  0
   22.9301   -3.2120   31.6495 H   0  0  0  0  0  0  0  0  0  0  0  0
   28.3912   -6.2188   27.7800 C   0  0  0  0  0  0  0  0  0  0  0  0
   28.8591   -7.4793   28.5370 C   0  0  0  0  0  0  0  0  0  0  0  0
   28.1829   -7.7666   29.8579 C   0  0  0  0  0  0  0  0  0  0  0  0
   28.2759   -6.9107   30.7733 O   0  0  0  0  0  0  0  0  0  0  0  0
   27.4824   -8.9854   30.1282 N   0  0  0  0  0  0  0  0  0  0  0  0
   27.5166   -9.8079   29.4915 H   0  0  0  0  0  0  0  0  0  0  0  0
   27.0057   -9.1154   31.0519 H   0  0  0  0  0  0  0  0  0  0  0  0
   26.9704   -6.7716   20.7540 C   0  0  0  0  0  0  0  0  0  0  0  0
   27.5409   -5.9967   21.7787 O   0  0  0  0  0  0  0  0  0  0  0  0
   28.4710   -5.7886   21.4903 H   0  0  0  0  0  0  0  0  0  0  0  0
   27.2312  -12.5102   19.5763 C   0  0  0  0  0  0  0  0  0  0  0  0
   27.3178  -11.9437   18.1874 C   0  0  0  0  0  0  0  0  0  0  0  0
   28.2552  -11.0324   17.7369 C   0  0  0  0  0  0  0  0  0  0  0  0
   27.9758  -10.7103   16.4569 N   0  0  0  0  0  0  0  0  0  0  0  0
   26.8735  -11.4376   16.1609 C   0  0  0  0  0  0  0  0  0  0  0  0
   26.4576  -12.2026   17.1913 N   0  0  0  0  0  0  0  0  0  0  0  0
   25.6225  -12.8269   17.2106 H   0  0  0  0  0  0  0  0  0  0  0  0
 95 96  1  0  0  0
 96 91  1  0  0  0
 91 92  2  0  0  0
 91 93  1  0  0  0
 93 90  1  0  0  0
 90103  1  0  0  0
103104  1  0  0  0
104105  1  0  0  0
105106  2  0  0  0
105107  1  0  0  0
 90 86  1  0  0  0
 86 87  2  0  0  0
 86 88  1  0  0  0
 88 85  1  0  0  0
 85110  1  0  0  0
110111  1  0  0  0
111112  1  0  0  0
112113  2  0  0  0
112114  1  0  0  0
 85 81  1  0  0  0
 81 82  2  0  0  0
 81 83  1  0  0  0
 83 79  1  0  0  0
 79 80  1  0  0  0
 79 75  1  0  0  0
 75 76  2  0  0  0
 75 77  1  0  0  0
 77 74  1  0  0  0
 74117  1  0  0  0
117118  1  0  0  0
 74 70  1  0  0  0
 70 71  2  0  0  0
 70 72  1  0  0  0
 72 69  1  0  0  0
 69120  1  0  0  0
120121  1  0  0  0
121122  2  0  0  0
122123  1  0  0  0
123124  2  0  0  0
124125  1  0  0  0
 69 65  1  0  0  0
 65 66  2  0  0  0
 65 67  1  0  0  0
 67  1  1  0  0  0
  1  2  1  0  0  0
  2  3  2  0  0  0
  3  4  1  0  0  0
  4  5  2  0  0  0
  5  6  1  0  0  0
  5  7  1  0  0  0
  7  8  2  0  0  0
  1 10  1  0  0  0
 10 11  2  0  0  0
 10 12  1  0  0  0
 12 14  1  0  0  0
 14 58  1  0  0  0
 58 59  1  0  0  0
 59 60  1  0  0  0
 60 61  1  0  0  0
 61 62  1  0  0  0
 14 15  1  0  0  0
 15 16  2  0  0  0
 15 17  1  0  0  0
 17 19  1  0  0  0
 19 51  1  0  0  0
 51 52  1  0  0  0
 52 53  1  0  0  0
 53 54  2  0  0  0
 53 55  1  0  0  0
 19 20  1  0  0  0
 20 21  2  0  0  0
 20 22  1  0  0  0
 22 24  1  0  0  0
 24 44  1  0  0  0
 44 45  1  0  0  0
 45 46  2  0  0  0
 46 47  1  0  0  0
 47 48  2  0  0  0
 48 49  1  0  0  0
 24 25  1  0  0  0
 25 26  2  0  0  0
 25 27  1  0  0  0
 27 29  1  0  0  0
 29 41  1  0  0  0
 41 42  1  0  0  0
 29 30  1  0  0  0
 30 31  2  0  0  0
 30 32  1  0  0  0
 32 33  1  0  0  0
 33 34  1  0  0  0
 34 35  1  0  0  0
 35 36  1  0  0  0
 36 37  1  0  0  0
 37 38  1  0  0  0
 37 39  2  0  0  0
 96 99  1  0  0  0
 99100  1  0  0  0
 99101  1  0  0  0
125121  1  0  0  0
  8  2  1  0  0  0
 49 45  1  0  0  0
 36 32  1  0  0  0
 95 97  1  0  0  0
 95 98  1  0  0  0
 93 94  1  0  0  0
107108  1  0  0  0
107109  1  0  0  0
 88 89  1  0  0  0
114115  1  0  0  0
114116  1  0  0  0
 83 84  1  0  0  0
 77 78  1  0  0  0
118119  1  0  0  0
 72 73  1  0  0  0
125126  1  0  0  0
 67 68  1  0  0  0
  6  9  1  0  0  0
 12 13  1  0  0  0
 62 63  1  0  0  0
 62 64  1  0  0  0
 17 18  1  0  0  0
 55 56  1  0  0  0
 55 57  1  0  0  0
 22 23  1  0  0  0
 49 50  1  0  0  0
 27 28  1  0  0  0
 42 43  1  0  0  0
 38 40  1  0  0  0
100102  1  0  0  0
M  END
> <minimizedAffinity>
-5.75676

$$$$
