


126129  0  0  0  0  0  0  0  0999 V2000
   10.6221    0.4992   22.1318 C   0  0  0  0  0  0  0  0  0  0  0  0
   11.4619    0.0887   22.4870 C   0  0  0  0  0  0  0  0  0  0  0  0
   11.4524   -0.3884   23.3658 C   0  0  0  0  0  0  0  0  0  0  0  0
   12.2923   -0.7989   23.7210 C   0  0  0  0  0  0  0  0  0  0  0  0
   13.1417   -0.7322   23.1975 C   0  0  0  0  0  0  0  0  0  0  0  0
   13.9815   -1.1427   23.5527 O   0  0  0  0  0  0  0  0  0  0  0  0
   13.1512   -0.2551   22.3187 C   0  0  0  0  0  0  0  0  0  0  0  0
   12.3114    0.1554   21.9635 C   0  0  0  0  0  0  0  0  0  0  0  0
   13.9725   -1.5898   24.3761 H   0  0  0  0  0  0  0  0  0  0  0  0
   10.5041    1.4920   22.1508 C   0  0  0  0  0  0  0  0  0  0  0  0
   10.3216    1.9901   21.3031 O   0  0  0  0  0  0  0  0  0  0  0  0
   10.5684    1.9867   23.0174 N   0  0  0  0  0  0  0  0  0  0  0  0
   10.7481    1.4963   23.8520 H   0  0  0  0  0  0  0  0  0  0  0  0
   10.4504    2.9796   23.0364 C   0  0  0  0  0  0  0  0  0  0  0  0
    9.5571    3.3728   23.2540 C   0  0  0  0  0  0  0  0  0  0  0  0
    9.1715    4.0898   22.6733 O   0  0  0  0  0  0  0  0  0  0  0  0
    9.0493    3.0491   24.0524 N   0  0  0  0  0  0  0  0  0  0  0  0
    9.4290    2.3433   24.6242 H   0  0  0  0  0  0  0  0  0  0  0  0
    8.1561    3.4423   24.2701 C   0  0  0  0  0  0  0  0  0  0  0  0
    8.0749    4.1303   24.9912 C   0  0  0  0  0  0  0  0  0  0  0  0
    8.5822    4.0208   25.8460 O   0  0  0  0  0  0  0  0  0  0  0  0
    7.4864    4.9277   24.8577 N   0  0  0  0  0  0  0  0  0  0  0  0
    6.9869    5.0355   24.0162 H   0  0  0  0  0  0  0  0  0  0  0  0
    7.4052    5.6157   25.5789 C   0  0  0  0  0  0  0  0  0  0  0  0
    7.8560    6.5024   25.4770 C   0  0  0  0  0  0  0  0  0  0  0  0
    7.5981    7.1110   24.7266 O   0  0  0  0  0  0  0  0  0  0  0  0
    8.5646    6.7806   26.1254 N   0  0  0  0  0  0  0  0  0  0  0  0
    8.8184    6.1814   26.8642 H   0  0  0  0  0  0  0  0  0  0  0  0
    9.0154    7.6674   26.0235 C   0  0  0  0  0  0  0  0  0  0  0  0
    9.8928    7.7306   25.5480 C   0  0  0  0  0  0  0  0  0  0  0  0
    9.9852    8.3197   24.7453 O   0  0  0  0  0  0  0  0  0  0  0  0
   10.6779    7.2045   25.8752 N   0  0  0  0  0  0  0  0  0  0  0  0
   10.6862    6.5907   26.6645 C   0  0  0  0  0  0  0  0  0  0  0  0
   11.6059    6.2068   26.7476 C   0  0  0  0  0  0  0  0  0  0  0  0
   12.1658    6.5835   26.0096 C   0  0  0  0  0  0  0  0  0  0  0  0
   11.5922    7.2001   25.4704 C   0  0  0  0  0  0  0  0  0  0  0  0
   11.8821    7.7208   24.6675 C   0  0  0  0  0  0  0  0  0  0  0  0
   12.4085    8.5635   24.7813 O   0  0  0  0  0  0  0  0  0  0  0  0
   11.6457    7.3989   23.7506 O   0  0  0  0  0  0  0  0  0  0  0  0
   12.6300    8.8650   25.6403 H   0  0  0  0  0  0  0  0  0  0  0  0
    8.5887    8.4911   26.3972 C   0  0  0  0  0  0  0  0  0  0  0  0
    8.5934    8.6530   27.3840 S   0  0  0  0  0  0  0  0  0  0  0  0
    9.1800    7.7530   28.2179 H   0  0  0  0  0  0  0  0  0  0  0  0
    6.8733    5.4168   26.4020 C   0  0  0  0  0  0  0  0  0  0  0  0
    5.8915    5.6058   26.4207 C   0  0  0  0  0  0  0  0  0  0  0  0
    5.1715    5.0110   26.0631 C   0  0  0  0  0  0  0  0  0  0  0  0
    4.2924    5.4603   26.2216 N   0  0  0  0  0  0  0  0  0  0  0  0
    4.4690    6.3329   26.6772 C   0  0  0  0  0  0  0  0  0  0  0  0
    5.4574    6.4228   26.8002 N   0  0  0  0  0  0  0  0  0  0  0  0
    5.9214    7.1823   27.2210 H   0  0  0  0  0  0  0  0  0  0  0  0
    7.3439    3.1476   23.7665 C   0  0  0  0  0  0  0  0  0  0  0  0
    6.8451    2.3308   24.0561 C   0  0  0  0  0  0  0  0  0  0  0  0
    6.1228    1.9542   23.4761 C   0  0  0  0  0  0  0  0  0  0  0  0
    5.7787    2.4822   22.6996 O   0  0  0  0  0  0  0  0  0  0  0  0
    5.7445    1.0496   23.6726 N   0  0  0  0  0  0  0  0  0  0  0  0
    6.0832    0.5299   24.4371 H   0  0  0  0  0  0  0  0  0  0  0  0
    5.0333    0.6788   23.1016 H   0  0  0  0  0  0  0  0  0  0  0  0
   11.2256    3.5792   22.8378 C   0  0  0  0  0  0  0  0  0  0  0  0
   11.8930    3.7871   23.5529 C   0  0  0  0  0  0  0  0  0  0  0  0
   12.8676    3.8244   23.3317 C   0  0  0  0  0  0  0  0  0  0  0  0
   13.2918    4.6963   23.0875 C   0  0  0  0  0  0  0  0  0  0  0  0
   14.2764    4.8242   23.2071 N   0  0  0  0  0  0  0  0  0  0  0  0
   14.8479    4.0651   23.5783 H   0  0  0  0  0  0  0  0  0  0  0  0
   14.7091    5.7136   22.9581 H   0  0  0  0  0  0  0  0  0  0  0  0
    9.0742   -0.2613   22.2922 C   0  0  0  0  0  0  0  0  0  0  0  0
    8.9698    0.1430   23.2009 O   0  0  0  0  0  0  0  0  0  0  0  0
    9.9004   -0.0831   21.7577 N   0  0  0  0  0  0  0  0  0  0  0  0
   10.0032   -0.4810   20.8631 H   0  0  0  0  0  0  0  0  0  0  0  0
    8.3525   -0.8436   21.9180 C   0  0  0  0  0  0  0  0  0  0  0  0
    8.1429   -2.3197   22.7995 C   0  0  0  0  0  0  0  0  0  0  0  0
    9.0248   -2.6473   22.4607 O   0  0  0  0  0  0  0  0  0  0  0  0
    7.8067   -1.4178   22.5282 N   0  0  0  0  0  0  0  0  0  0  0  0
    6.9385   -1.0952   22.8618 H   0  0  0  0  0  0  0  0  0  0  0  0
    7.5971   -2.8940   23.4097 C   0  0  0  0  0  0  0  0  0  0  0  0
    7.0347   -2.4071   24.9739 C   0  0  0  0  0  0  0  0  0  0  0  0
    7.8818   -2.7452   25.3837 O   0  0  0  0  0  0  0  0  0  0  0  0
    6.8923   -2.4815   23.9869 N   0  0  0  0  0  0  0  0  0  0  0  0
    6.0583   -2.1487   23.5834 H   0  0  0  0  0  0  0  0  0  0  0  0
    6.3298   -1.9947   25.5510 C   0  0  0  0  0  0  0  0  0  0  0  0
    5.3838   -2.3127   25.4893 C   0  0  0  0  0  0  0  0  0  0  0  0
    6.0267   -1.1232   27.0168 C   0  0  0  0  0  0  0  0  0  0  0  0
    5.2412   -1.7128   27.2049 O   0  0  0  0  0  0  0  0  0  0  0  0
    6.5711   -1.2642   26.1899 N   0  0  0  0  0  0  0  0  0  0  0  0
    7.3444   -0.6838   26.0048 H   0  0  0  0  0  0  0  0  0  0  0  0
    6.2679   -0.3927   27.6558 C   0  0  0  0  0  0  0  0  0  0  0  0
    5.5566    1.1819   27.5351 C   0  0  0  0  0  0  0  0  0  0  0  0
    6.2302    1.4329   26.8399 O   0  0  0  0  0  0  0  0  0  0  0  0
    5.5755    0.2691   27.9430 N   0  0  0  0  0  0  0  0  0  0  0  0
    4.9124    0.0220   28.6274 H   0  0  0  0  0  0  0  0  0  0  0  0
    4.8642    1.8437   27.8223 C   0  0  0  0  0  0  0  0  0  0  0  0
    3.2862    1.8980   27.1103 C   0  0  0  0  0  0  0  0  0  0  0  0
    2.9771    1.1863   27.7411 O   0  0  0  0  0  0  0  0  0  0  0  0
    4.2297    2.2268   27.1510 N   0  0  0  0  0  0  0  0  0  0  0  0
    4.5341    2.9275   26.5300 H   0  0  0  0  0  0  0  0  0  0  0  0
    2.0440    3.0321   26.6970 N   0  0  0  0  0  0  0  0  0  0  0  0
    2.6517    2.2811   26.4389 C   0  0  0  0  0  0  0  0  0  0  0  0
    1.3968    3.4229   26.0123 H   0  0  0  0  0  0  0  0  0  0  0  0
    2.0712    3.4074   27.6452 H   0  0  0  0  0  0  0  0  0  0  0  0
    2.6250    1.9132   25.5095 C   0  0  0  0  0  0  0  0  0  0  0  0
    2.5293    0.9284   25.3641 O   0  0  0  0  0  0  0  0  0  0  0  0
    2.6940    2.5300   24.7254 C   0  0  0  0  0  0  0  0  0  0  0  0
    2.4623    0.3301   26.1247 H   0  0  0  0  0  0  0  0  0  0  0  0
    4.8062    2.1226   28.7809 C   0  0  0  0  0  0  0  0  0  0  0  0
    5.2860    2.9425   29.0930 C   0  0  0  0  0  0  0  0  0  0  0  0
    5.0856    3.3265   29.9943 C   0  0  0  0  0  0  0  0  0  0  0  0
    4.1936    3.7411   30.1742 O   0  0  0  0  0  0  0  0  0  0  0  0
    5.7774    3.2960   30.7158 N   0  0  0  0  0  0  0  0  0  0  0  0
    6.6556    2.8879   30.5388 H   0  0  0  0  0  0  0  0  0  0  0  0
    5.5801    3.6740   31.6032 H   0  0  0  0  0  0  0  0  0  0  0  0
    7.2015   -0.3240   28.0075 C   0  0  0  0  0  0  0  0  0  0  0  0
    7.4693   -0.8425   28.8195 C   0  0  0  0  0  0  0  0  0  0  0  0
    8.1843   -0.4911   29.4238 C   0  0  0  0  0  0  0  0  0  0  0  0
    8.0682    0.3946   29.8734 O   0  0  0  0  0  0  0  0  0  0  0  0
    9.0154   -1.0252   29.5786 N   0  0  0  0  0  0  0  0  0  0  0  0
    9.1297   -1.8972   29.1360 H   0  0  0  0  0  0  0  0  0  0  0  0
    9.7193   -0.6792   30.1736 H   0  0  0  0  0  0  0  0  0  0  0  0
    7.7562   -3.8807   23.4427 C   0  0  0  0  0  0  0  0  0  0  0  0
    7.1429   -4.5026   22.9558 O   0  0  0  0  0  0  0  0  0  0  0  0
    7.2972   -5.4597   22.9878 H   0  0  0  0  0  0  0  0  0  0  0  0
    8.1766   -0.8516   20.9336 C   0  0  0  0  0  0  0  0  0  0  0  0
    7.3212   -0.4774   20.5755 C   0  0  0  0  0  0  0  0  0  0  0  0
    6.5193   -1.0061   20.2972 C   0  0  0  0  0  0  0  0  0  0  0  0
    5.8199   -0.3643   19.9824 N   0  0  0  0  0  0  0  0  0  0  0  0
    6.1897    0.5611   20.0662 C   0  0  0  0  0  0  0  0  0  0  0  0
    7.1175    0.4911   20.4327 N   0  0  0  0  0  0  0  0  0  0  0  0
    7.7239    1.2437   20.6201 H   0  0  0  0  0  0  0  0  0  0  0  0
 95 96  1  0  0  0
 95 97  1  0  0  0
 95 98  1  0  0  0
 96 91  1  0  0  0
 96 99  1  0  0  0
 91 92  2  0  0  0
 91 93  1  0  0  0
 93 90  1  0  0  0
 93 94  1  0  0  0
 90103  1  0  0  0
 90 86  1  0  0  0
103104  1  0  0  0
104105  1  0  0  0
105106  2  0  0  0
105107  1  0  0  0
107108  1  0  0  0
107109  1  0  0  0
 86 87  2  0  0  0
 86 88  1  0  0  0
 88 85  1  0  0  0
 88 89  1  0  0  0
 85110  1  0  0  0
 85 81  1  0  0  0
110111  1  0  0  0
111112  1  0  0  0
112113  2  0  0  0
112114  1  0  0  0
114115  1  0  0  0
114116  1  0  0  0
 81 82  2  0  0  0
 81 83  1  0  0  0
 83 79  1  0  0  0
 83 84  1  0  0  0
 79 80  1  0  0  0
 79 75  1  0  0  0
 75 76  2  0  0  0
 75 77  1  0  0  0
 77 74  1  0  0  0
 77 78  1  0  0  0
 74117  1  0  0  0
 74 70  1  0  0  0
117118  1  0  0  0
118119  1  0  0  0
 70 71  2  0  0  0
 70 72  1  0  0  0
 72 69  1  0  0  0
 72 73  1  0  0  0
 69120  1  0  0  0
 69 65  1  0  0  0
120121  1  0  0  0
121125  1  0  0  0
121122  2  0  0  0
122123  1  0  0  0
123124  2  0  0  0
124125  1  0  0  0
125126  1  0  0  0
 65 66  2  0  0  0
 65 67  1  0  0  0
 67  1  1  0  0  0
 67 68  1  0  0  0
  1  2  1  0  0  0
  1 10  1  0  0  0
  2  8  2  0  0  0
  2  3  1  0  0  0
  3  4  2  0  0  0
  4  5  1  0  0  0
  5  6  1  0  0  0
  5  7  2  0  0  0
  6  9  1  0  0  0
  7  8  1  0  0  0
 10 11  2  0  0  0
 10 12  1  0  0  0
 12 14  1  0  0  0
 12 13  1  0  0  0
 14 58  1  0  0  0
 14 15  1  0  0  0
 58 59  1  0  0  0
 59 60  1  0  0  0
 60 61  1  0  0  0
 61 62  1  0  0  0
 62 63  1  0  0  0
 62 64  1  0  0  0
 15 16  2  0  0  0
 15 17  1  0  0  0
 17 19  1  0  0  0
 17 18  1  0  0  0
 19 51  1  0  0  0
 19 20  1  0  0  0
 51 52  1  0  0  0
 52 53  1  0  0  0
 53 54  2  0  0  0
 53 55  1  0  0  0
 55 56  1  0  0  0
 55 57  1  0  0  0
 20 21  2  0  0  0
 20 22  1  0  0  0
 22 24  1  0  0  0
 22 23  1  0  0  0
 24 44  1  0  0  0
 24 25  1  0  0  0
 44 45  1  0  0  0
 45 49  1  0  0  0
 45 46  2  0  0  0
 46 47  1  0  0  0
 47 48  2  0  0  0
 48 49  1  0  0  0
 49 50  1  0  0  0
 25 26  2  0  0  0
 25 27  1  0  0  0
 27 29  1  0  0  0
 27 28  1  0  0  0
 29 41  1  0  0  0
 29 30  1  0  0  0
 41 42  1  0  0  0
 42 43  1  0  0  0
 30 31  2  0  0  0
 30 32  1  0  0  0
 32 36  1  0  0  0
 32 33  1  0  0  0
 33 34  1  0  0  0
 34 35  1  0  0  0
 35 36  1  0  0  0
 36 37  1  0  0  0
 37 38  1  0  0  0
 37 39  2  0  0  0
 38 40  1  0  0  0
 99100  1  0  0  0
 99101  1  0  0  0
100102  1  0  0  0
M  END
> <minimizedAffinity>
-6.61291

$$$$



126129  0  0  0  0  0  0  0  0999 V2000
    8.2706    1.1914   21.9133 C   0  0  0  0  0  0  0  0  0  0  0  0
    7.5356    1.1140   21.2397 C   0  0  0  0  0  0  0  0  0  0  0  0
    6.5980    0.9396   21.5405 C   0  0  0  0  0  0  0  0  0  0  0  0
    5.8630    0.8622   20.8668 C   0  0  0  0  0  0  0  0  0  0  0  0
    6.0656    0.9591   19.8924 C   0  0  0  0  0  0  0  0  0  0  0  0
    5.3307    0.8817   19.2187 O   0  0  0  0  0  0  0  0  0  0  0  0
    7.0032    1.1336   19.5916 C   0  0  0  0  0  0  0  0  0  0  0  0
    7.7382    1.2110   20.2652 C   0  0  0  0  0  0  0  0  0  0  0  0
    4.4521    0.7183   19.5006 H   0  0  0  0  0  0  0  0  0  0  0  0
    8.7726    2.0509   22.0090 C   0  0  0  0  0  0  0  0  0  0  0  0
    9.0814    2.5429   21.1949 O   0  0  0  0  0  0  0  0  0  0  0  0
    8.9660    2.4185   22.9186 N   0  0  0  0  0  0  0  0  0  0  0  0
    8.6620    1.9342   23.7200 H   0  0  0  0  0  0  0  0  0  0  0  0
    9.4681    3.2781   23.0143 C   0  0  0  0  0  0  0  0  0  0  0  0
    9.0106    4.0856   23.3866 C   0  0  0  0  0  0  0  0  0  0  0  0
    8.7320    4.1041   24.3468 O   0  0  0  0  0  0  0  0  0  0  0  0
    8.8317    4.8745   22.7988 N   0  0  0  0  0  0  0  0  0  0  0  0
    9.1061    4.8562   21.8535 H   0  0  0  0  0  0  0  0  0  0  0  0
    8.3743    5.6820   23.1711 C   0  0  0  0  0  0  0  0  0  0  0  0
    8.9102    6.4860   23.4288 C   0  0  0  0  0  0  0  0  0  0  0  0
    9.7855    6.6680   22.9808 O   0  0  0  0  0  0  0  0  0  0  0  0
    8.5709    7.1079   24.1346 N   0  0  0  0  0  0  0  0  0  0  0  0
    7.7092    6.9287   24.5757 H   0  0  0  0  0  0  0  0  0  0  0  0
    9.1068    7.9119   24.3923 C   0  0  0  0  0  0  0  0  0  0  0  0
    9.5929    7.9297   25.2660 C   0  0  0  0  0  0  0  0  0  0  0  0
    9.0879    7.8155   26.1215 O   0  0  0  0  0  0  0  0  0  0  0  0
   10.5840    8.0615   25.2842 N   0  0  0  0  0  0  0  0  0  0  0  0
   11.0812    8.1739   24.4420 H   0  0  0  0  0  0  0  0  0  0  0  0
   11.0701    8.0793   26.1579 C   0  0  0  0  0  0  0  0  0  0  0  0
   11.3212    8.9539   26.5727 C   0  0  0  0  0  0  0  0  0  0  0  0
   10.9319    9.2191   27.4548 O   0  0  0  0  0  0  0  0  0  0  0  0
   11.9616    9.5634   26.1053 N   0  0  0  0  0  0  0  0  0  0  0  0
   12.4025    9.3893   25.2248 C   0  0  0  0  0  0  0  0  0  0  0  0
   12.9869   10.1723   25.0118 C   0  0  0  0  0  0  0  0  0  0  0  0
   12.9071   10.8303   25.7605 C   0  0  0  0  0  0  0  0  0  0  0  0
   12.2734   10.4540   26.4364 C   0  0  0  0  0  0  0  0  0  0  0  0
   11.9997   10.8914   27.2929 C   0  0  0  0  0  0  0  0  0  0  0  0
   11.2051   11.4984   27.3127 O   0  0  0  0  0  0  0  0  0  0  0  0
   12.5204   10.7220   28.1296 O   0  0  0  0  0  0  0  0  0  0  0  0
   10.7172   11.6571   26.5287 H   0  0  0  0  0  0  0  0  0  0  0  0
   11.3051    7.2225   26.6170 C   0  0  0  0  0  0  0  0  0  0  0  0
   11.9387    6.5810   26.1845 S   0  0  0  0  0  0  0  0  0  0  0  0
   12.4808    6.8738   24.9721 H   0  0  0  0  0  0  0  0  0  0  0  0
    9.1567    8.6980   23.7763 C   0  0  0  0  0  0  0  0  0  0  0  0
    8.4349    9.3899   23.7891 C   0  0  0  0  0  0  0  0  0  0  0  0
    7.6843    9.4687   23.1330 C   0  0  0  0  0  0  0  0  0  0  0  0
    7.1224   10.2519   23.3987 N   0  0  0  0  0  0  0  0  0  0  0  0
    7.5256   10.6574   24.2192 C   0  0  0  0  0  0  0  0  0  0  0  0
    8.3368   10.1246   24.4604 N   0  0  0  0  0  0  0  0  0  0  0  0
    8.9339   10.2937   25.2247 H   0  0  0  0  0  0  0  0  0  0  0  0
    7.3809    5.6856   23.2857 C   0  0  0  0  0  0  0  0  0  0  0  0
    6.7866    5.8207   22.4930 C   0  0  0  0  0  0  0  0  0  0  0  0
    5.8278    6.0728   22.6241 C   0  0  0  0  0  0  0  0  0  0  0  0
    5.5944    6.9344   23.0750 O   0  0  0  0  0  0  0  0  0  0  0  0
    5.1023    5.4634   22.3042 N   0  0  0  0  0  0  0  0  0  0  0  0
    5.3321    4.6152   21.8603 H   0  0  0  0  0  0  0  0  0  0  0  0
    4.1584    5.7116   22.4333 H   0  0  0  0  0  0  0  0  0  0  0  0
   10.4276    3.3301   22.7376 C   0  0  0  0  0  0  0  0  0  0  0  0
   11.1497    3.2975   23.4287 C   0  0  0  0  0  0  0  0  0  0  0  0
   12.1035    3.4359   23.1620 C   0  0  0  0  0  0  0  0  0  0  0  0
   12.5136    4.3457   23.2257 C   0  0  0  0  0  0  0  0  0  0  0  0
   13.4701    4.4450   23.4998 N   0  0  0  0  0  0  0  0  0  0  0  0
   14.0276    3.6181   23.7146 H   0  0  0  0  0  0  0  0  0  0  0  0
   13.8884    5.3729   23.5648 H   0  0  0  0  0  0  0  0  0  0  0  0
    9.2117   -0.2340   22.2005 C   0  0  0  0  0  0  0  0  0  0  0  0
    9.6870   -0.0953   21.3316 O   0  0  0  0  0  0  0  0  0  0  0  0
    8.5035    0.4093   22.4914 N   0  0  0  0  0  0  0  0  0  0  0  0
    8.0356    0.2728   23.3467 H   0  0  0  0  0  0  0  0  0  0  0  0
    9.4446   -1.0161   22.7785 C   0  0  0  0  0  0  0  0  0  0  0  0
    8.1499   -1.8617   23.5587 C   0  0  0  0  0  0  0  0  0  0  0  0
    7.9312   -2.3211   22.6978 O   0  0  0  0  0  0  0  0  0  0  0  0
    8.9066   -1.2092   23.5991 N   0  0  0  0  0  0  0  0  0  0  0  0
    9.1220   -0.7569   24.4466 H   0  0  0  0  0  0  0  0  0  0  0  0
    7.6119   -2.0549   24.3792 C   0  0  0  0  0  0  0  0  0  0  0  0
    6.6049   -0.9478   25.2512 C   0  0  0  0  0  0  0  0  0  0  0  0
    5.8144   -1.2453   24.7158 O   0  0  0  0  0  0  0  0  0  0  0  0
    7.5037   -1.3526   25.0829 N   0  0  0  0  0  0  0  0  0  0  0  0
    8.2819   -1.0599   25.6099 H   0  0  0  0  0  0  0  0  0  0  0  0
    6.4966   -0.2456   25.9549 C   0  0  0  0  0  0  0  0  0  0  0  0
    6.9483   -0.3516   26.8407 C   0  0  0  0  0  0  0  0  0  0  0  0
    6.3701    1.4163   25.4840 C   0  0  0  0  0  0  0  0  0  0  0  0
    7.3633    1.4618   25.3774 O   0  0  0  0  0  0  0  0  0  0  0  0
    5.9367    0.5626   25.7727 N   0  0  0  0  0  0  0  0  0  0  0  0
    4.9588    0.5179   25.8776 H   0  0  0  0  0  0  0  0  0  0  0  0
    5.8102    2.2247   25.3018 C   0  0  0  0  0  0  0  0  0  0  0  0
    5.7761    3.5197   26.4515 C   0  0  0  0  0  0  0  0  0  0  0  0
    5.1173    3.0105   27.0054 O   0  0  0  0  0  0  0  0  0  0  0  0
    6.1225    3.1267   25.5997 N   0  0  0  0  0  0  0  0  0  0  0  0
    6.7710    3.6279   25.0544 H   0  0  0  0  0  0  0  0  0  0  0  0
    6.0884    4.4217   26.7494 C   0  0  0  0  0  0  0  0  0  0  0  0
    7.5344    4.5313   27.6965 C   0  0  0  0  0  0  0  0  0  0  0  0
    7.0228    4.2543   28.5098 O   0  0  0  0  0  0  0  0  0  0  0  0
    7.0672    4.6150   26.8163 N   0  0  0  0  0  0  0  0  0  0  0  0
    7.5710    4.8877   26.0155 H   0  0  0  0  0  0  0  0  0  0  0  0
    9.1518    4.3000   27.1213 N   0  0  0  0  0  0  0  0  0  0  0  0
    8.5133    4.7246   27.7633 C   0  0  0  0  0  0  0  0  0  0  0  0
   10.1502    4.4971   27.1895 H   0  0  0  0  0  0  0  0  0  0  0  0
    8.8045    3.6698   26.3984 H   0  0  0  0  0  0  0  0  0  0  0  0
    8.8538    5.3424   28.4721 C   0  0  0  0  0  0  0  0  0  0  0  0
    8.5302    6.2879   28.5088 O   0  0  0  0  0  0  0  0  0  0  0  0
    9.5177    5.0148   29.1442 C   0  0  0  0  0  0  0  0  0  0  0  0
    7.8861    6.6057   27.8568 H   0  0  0  0  0  0  0  0  0  0  0  0
    5.4219    5.1305   26.9804 C   0  0  0  0  0  0  0  0  0  0  0  0
    5.1665    5.8175   26.3001 C   0  0  0  0  0  0  0  0  0  0  0  0
    4.2502    6.2178   26.3133 C   0  0  0  0  0  0  0  0  0  0  0  0
    3.5742    5.9419   25.6301 O   0  0  0  0  0  0  0  0  0  0  0  0
    4.0100    6.8939   27.0098 N   0  0  0  0  0  0  0  0  0  0  0  0
    4.6755    7.1655   27.6825 H   0  0  0  0  0  0  0  0  0  0  0  0
    3.1079    7.2880   27.0228 H   0  0  0  0  0  0  0  0  0  0  0  0
    4.9380    2.1309   24.8217 C   0  0  0  0  0  0  0  0  0  0  0  0
    4.7508    2.6867   24.0117 C   0  0  0  0  0  0  0  0  0  0  0  0
    3.8103    2.8060   23.6936 C   0  0  0  0  0  0  0  0  0  0  0  0
    3.6094    2.8010   22.7141 O   0  0  0  0  0  0  0  0  0  0  0  0
    3.0707    2.9304   24.3552 N   0  0  0  0  0  0  0  0  0  0  0  0
    3.2685    2.9353   25.3196 H   0  0  0  0  0  0  0  0  0  0  0  0
    2.1447    3.0478   24.0419 H   0  0  0  0  0  0  0  0  0  0  0  0
    7.1822   -2.9502   24.4960 C   0  0  0  0  0  0  0  0  0  0  0  0
    7.6487   -3.6644   25.0179 O   0  0  0  0  0  0  0  0  0  0  0  0
    7.2318   -4.5330   25.1312 H   0  0  0  0  0  0  0  0  0  0  0  0
   10.2156   -1.6051   22.5360 C   0  0  0  0  0  0  0  0  0  0  0  0
   10.9953   -1.6888   23.1564 C   0  0  0  0  0  0  0  0  0  0  0  0
   11.6340   -0.9588   23.3996 C   0  0  0  0  0  0  0  0  0  0  0  0
   12.3068   -1.3361   24.0360 N   0  0  0  0  0  0  0  0  0  0  0  0
   12.0839   -2.2994   24.1862 C   0  0  0  0  0  0  0  0  0  0  0  0
   11.2733   -2.5173   23.6425 N   0  0  0  0  0  0  0  0  0  0  0  0
   10.8274   -3.3937   23.5943 H   0  0  0  0  0  0  0  0  0  0  0  0
 95 96  1  0  0  0
 95 97  1  0  0  0
 95 98  1  0  0  0
 96 91  1  0  0  0
 96 99  1  0  0  0
 91 92  2  0  0  0
 91 93  1  0  0  0
 93 90  1  0  0  0
 93 94  1  0  0  0
 90103  1  0  0  0
 90 86  1  0  0  0
103104  1  0  0  0
104105  1  0  0  0
105106  2  0  0  0
105107  1  0  0  0
107108  1  0  0  0
107109  1  0  0  0
 86 87  2  0  0  0
 86 88  1  0  0  0
 88 85  1  0  0  0
 88 89  1  0  0  0
 85110  1  0  0  0
 85 81  1  0  0  0
110111  1  0  0  0
111112  1  0  0  0
112113  2  0  0  0
112114  1  0  0  0
114115  1  0  0  0
114116  1  0  0  0
 81 82  2  0  0  0
 81 83  1  0  0  0
 83 79  1  0  0  0
 83 84  1  0  0  0
 79 80  1  0  0  0
 79 75  1  0  0  0
 75 76  2  0  0  0
 75 77  1  0  0  0
 77 74  1  0  0  0
 77 78  1  0  0  0
 74117  1  0  0  0
 74 70  1  0  0  0
117118  1  0  0  0
118119  1  0  0  0
 70 71  2  0  0  0
 70 72  1  0  0  0
 72 69  1  0  0  0
 72 73  1  0  0  0
 69120  1  0  0  0
 69 65  1  0  0  0
120121  1  0  0  0
121125  1  0  0  0
121122  2  0  0  0
122123  1  0  0  0
123124  2  0  0  0
124125  1  0  0  0
125126  1  0  0  0
 65 66  2  0  0  0
 65 67  1  0  0  0
 67  1  1  0  0  0
 67 68  1  0  0  0
  1  2  1  0  0  0
  1 10  1  0  0  0
  2  8  2  0  0  0
  2  3  1  0  0  0
  3  4  2  0  0  0
  4  5  1  0  0  0
  5  6  1  0  0  0
  5  7  2  0  0  0
  6  9  1  0  0  0
  7  8  1  0  0  0
 10 11  2  0  0  0
 10 12  1  0  0  0
 12 14  1  0  0  0
 12 13  1  0  0  0
 14 58  1  0  0  0
 14 15  1  0  0  0
 58 59  1  0  0  0
 59 60  1  0  0  0
 60 61  1  0  0  0
 61 62  1  0  0  0
 62 63  1  0  0  0
 62 64  1  0  0  0
 15 16  2  0  0  0
 15 17  1  0  0  0
 17 19  1  0  0  0
 17 18  1  0  0  0
 19 51  1  0  0  0
 19 20  1  0  0  0
 51 52  1  0  0  0
 52 53  1  0  0  0
 53 54  2  0  0  0
 53 55  1  0  0  0
 55 56  1  0  0  0
 55 57  1  0  0  0
 20 21  2  0  0  0
 20 22  1  0  0  0
 22 24  1  0  0  0
 22 23  1  0  0  0
 24 44  1  0  0  0
 24 25  1  0  0  0
 44 45  1  0  0  0
 45 49  1  0  0  0
 45 46  2  0  0  0
 46 47  1  0  0  0
 47 48  2  0  0  0
 48 49  1  0  0  0
 49 50  1  0  0  0
 25 26  2  0  0  0
 25 27  1  0  0  0
 27 29  1  0  0  0
 27 28  1  0  0  0
 29 41  1  0  0  0
 29 30  1  0  0  0
 41 42  1  0  0  0
 42 43  1  0  0  0
 30 31  2  0  0  0
 30 32  1  0  0  0
 32 36  1  0  0  0
 32 33  1  0  0  0
 33 34  1  0  0  0
 34 35  1  0  0  0
 35 36  1  0  0  0
 36 37  1  0  0  0
 37 38  1  0  0  0
 37 39  2  0  0  0
 38 40  1  0  0  0
 99100  1  0  0  0
 99101  1  0  0  0
100102  1  0  0  0
M  END
> <minimizedAffinity>
-6.58058

$$$$



126129  0  0  0  0  0  0  0  0999 V2000
   10.6565    0.7126   22.0460 C   0  0  0  0  0  0  0  0  0  0  0  0
   11.4627    0.2744   22.4433 C   0  0  0  0  0  0  0  0  0  0  0  0
   11.3679   -0.3112   23.2483 C   0  0  0  0  0  0  0  0  0  0  0  0
   12.1742   -0.7495   23.6456 C   0  0  0  0  0  0  0  0  0  0  0  0
   13.0753   -0.6022   23.2378 C   0  0  0  0  0  0  0  0  0  0  0  0
   13.8816   -1.0404   23.6351 O   0  0  0  0  0  0  0  0  0  0  0  0
   13.1702   -0.0166   22.4328 C   0  0  0  0  0  0  0  0  0  0  0  0
   12.3639    0.4217   22.0355 C   0  0  0  0  0  0  0  0  0  0  0  0
   13.7927   -1.5892   24.3894 H   0  0  0  0  0  0  0  0  0  0  0  0
   10.5151    1.6961   22.1594 C   0  0  0  0  0  0  0  0  0  0  0  0
   10.3540    2.2736   21.3591 O   0  0  0  0  0  0  0  0  0  0  0  0
   10.5347    2.1019   23.0732 N   0  0  0  0  0  0  0  0  0  0  0  0
   10.6932    1.5333   23.8611 H   0  0  0  0  0  0  0  0  0  0  0  0
   10.3933    3.0854   23.1866 C   0  0  0  0  0  0  0  0  0  0  0  0
    9.4972    3.4331   23.4626 C   0  0  0  0  0  0  0  0  0  0  0  0
    9.0933    4.2115   22.9820 O   0  0  0  0  0  0  0  0  0  0  0  0
    9.0051    3.0026   24.2192 N   0  0  0  0  0  0  0  0  0  0  0  0
    9.4029    2.2363   24.6924 H   0  0  0  0  0  0  0  0  0  0  0  0
    8.1091    3.3503   24.4952 C   0  0  0  0  0  0  0  0  0  0  0  0
    8.0369    4.0043   25.2482 C   0  0  0  0  0  0  0  0  0  0  0  0
    8.5782    3.8724   26.0787 O   0  0  0  0  0  0  0  0  0  0  0  0
    7.4234    4.7902   25.1709 N   0  0  0  0  0  0  0  0  0  0  0  0
    6.8905    4.9201   24.3533 H   0  0  0  0  0  0  0  0  0  0  0  0
    7.3511    5.4442   25.9239 C   0  0  0  0  0  0  0  0  0  0  0  0
    7.7768    6.3457   25.8457 C   0  0  0  0  0  0  0  0  0  0  0  0
    7.4610    6.9889   25.1482 O   0  0  0  0  0  0  0  0  0  0  0  0
    8.5182    6.6040   26.4650 N   0  0  0  0  0  0  0  0  0  0  0  0
    8.8290    5.9708   27.1517 H   0  0  0  0  0  0  0  0  0  0  0  0
    8.9438    7.5055   26.3868 C   0  0  0  0  0  0  0  0  0  0  0  0
    9.8005    7.6119   25.8821 C   0  0  0  0  0  0  0  0  0  0  0  0
    9.8472    8.2359   25.1022 O   0  0  0  0  0  0  0  0  0  0  0  0
   10.6107    7.0942   26.1575 N   0  0  0  0  0  0  0  0  0  0  0  0
   10.6648    6.4488   26.9194 C   0  0  0  0  0  0  0  0  0  0  0  0
   11.5964    6.0868   26.9520 C   0  0  0  0  0  0  0  0  0  0  0  0
   12.1180    6.5085   26.2103 C   0  0  0  0  0  0  0  0  0  0  0  0
   11.5087    7.1311   25.7193 C   0  0  0  0  0  0  0  0  0  0  0  0
   11.7544    7.6921   24.9288 C   0  0  0  0  0  0  0  0  0  0  0  0
   12.2667    8.5412   25.0581 O   0  0  0  0  0  0  0  0  0  0  0  0
   11.4879    7.4041   24.0090 O   0  0  0  0  0  0  0  0  0  0  0  0
   12.5164    8.8110   25.9199 H   0  0  0  0  0  0  0  0  0  0  0  0
    8.5127    8.3007   26.8134 C   0  0  0  0  0  0  0  0  0  0  0  0
    8.5559    8.4210   27.8051 S   0  0  0  0  0  0  0  0  0  0  0  0
    9.2008    7.5031   28.5740 H   0  0  0  0  0  0  0  0  0  0  0  0
    6.8533    5.1967   26.7551 C   0  0  0  0  0  0  0  0  0  0  0  0
    5.8624    5.3229   26.8007 C   0  0  0  0  0  0  0  0  0  0  0  0
    5.1713    4.6476   26.5430 C   0  0  0  0  0  0  0  0  0  0  0  0
    4.2704    5.0538   26.6950 N   0  0  0  0  0  0  0  0  0  0  0  0
    4.4045    5.9803   27.0467 C   0  0  0  0  0  0  0  0  0  0  0  0
    5.3885    6.1466   27.1120 N   0  0  0  0  0  0  0  0  0  0  0  0
    5.8155    6.9757   27.4275 H   0  0  0  0  0  0  0  0  0  0  0  0
    7.2853    3.0441   24.0182 C   0  0  0  0  0  0  0  0  0  0  0  0
    6.8645    2.1693   24.2583 C   0  0  0  0  0  0  0  0  0  0  0  0
    6.1860    1.7572   23.6503 C   0  0  0  0  0  0  0  0  0  0  0  0
    5.7335    2.3153   22.9547 O   0  0  0  0  0  0  0  0  0  0  0  0
    5.9599    0.7870   23.7377 N   0  0  0  0  0  0  0  0  0  0  0  0
    6.4054    0.2376   24.4225 H   0  0  0  0  0  0  0  0  0  0  0  0
    5.2919    0.3813   23.1391 H   0  0  0  0  0  0  0  0  0  0  0  0
   11.1479    3.7210   23.0241 C   0  0  0  0  0  0  0  0  0  0  0  0
   11.8441    3.8612   23.7283 C   0  0  0  0  0  0  0  0  0  0  0  0
   12.8115    3.8880   23.4766 C   0  0  0  0  0  0  0  0  0  0  0  0
   13.2272    4.7475   23.1793 C   0  0  0  0  0  0  0  0  0  0  0  0
   14.2209    4.8570   23.2038 N   0  0  0  0  0  0  0  0  0  0  0  0
   14.8104    4.0920   23.5318 H   0  0  0  0  0  0  0  0  0  0  0  0
   14.6450    5.7337   22.9006 H   0  0  0  0  0  0  0  0  0  0  0  0
    9.1246   -0.0911   21.9611 C   0  0  0  0  0  0  0  0  0  0  0  0
    8.9223    0.1955   22.8976 O   0  0  0  0  0  0  0  0  0  0  0  0
    9.9916    0.1675   21.5353 N   0  0  0  0  0  0  0  0  0  0  0  0
   10.1908   -0.1146   20.6134 H   0  0  0  0  0  0  0  0  0  0  0  0
    8.4597   -0.6362   21.4504 C   0  0  0  0  0  0  0  0  0  0  0  0
    8.3192   -2.2797   21.9787 C   0  0  0  0  0  0  0  0  0  0  0  0
    9.2138   -2.4840   21.5812 O   0  0  0  0  0  0  0  0  0  0  0  0
    7.9422   -1.3558   21.9133 N   0  0  0  0  0  0  0  0  0  0  0  0
    7.0614   -1.1547   22.3046 H   0  0  0  0  0  0  0  0  0  0  0  0
    7.8017   -2.9993   22.4416 C   0  0  0  0  0  0  0  0  0  0  0  0
    7.6919   -3.3170   24.1407 C   0  0  0  0  0  0  0  0  0  0  0  0
    8.4235   -3.9941   24.0613 O   0  0  0  0  0  0  0  0  0  0  0  0
    7.3810   -2.8197   23.3308 N   0  0  0  0  0  0  0  0  0  0  0  0
    6.6607   -2.1531   23.4089 H   0  0  0  0  0  0  0  0  0  0  0  0
    7.2713   -3.1373   25.0299 C   0  0  0  0  0  0  0  0  0  0  0  0
    7.3231   -2.2232   25.4320 C   0  0  0  0  0  0  0  0  0  0  0  0
    5.8341   -3.7707   25.7601 C   0  0  0  0  0  0  0  0  0  0  0  0
    5.3418   -2.9351   25.5159 O   0  0  0  0  0  0  0  0  0  0  0  0
    6.7988   -3.8717   25.5171 N   0  0  0  0  0  0  0  0  0  0  0  0
    7.2834   -4.6943   25.7575 H   0  0  0  0  0  0  0  0  0  0  0  0
    5.3615   -4.5051   26.2473 C   0  0  0  0  0  0  0  0  0  0  0  0
    5.0958   -4.3752   27.9539 C   0  0  0  0  0  0  0  0  0  0  0  0
    6.0336   -4.6781   28.1229 O   0  0  0  0  0  0  0  0  0  0  0  0
    4.7597   -4.2887   27.0160 N   0  0  0  0  0  0  0  0  0  0  0  0
    3.8364   -3.9905   26.8495 H   0  0  0  0  0  0  0  0  0  0  0  0
    4.4940   -4.1588   28.7226 C   0  0  0  0  0  0  0  0  0  0  0  0
    4.1340   -2.5336   29.2013 C   0  0  0  0  0  0  0  0  0  0  0  0
    3.3939   -2.4996   28.5296 O   0  0  0  0  0  0  0  0  0  0  0  0
    4.6840   -3.3631   29.2978 N   0  0  0  0  0  0  0  0  0  0  0  0
    5.4126   -3.3966   29.9591 H   0  0  0  0  0  0  0  0  0  0  0  0
    3.8092   -1.5980   30.6223 N   0  0  0  0  0  0  0  0  0  0  0  0
    4.3240   -1.7379   29.7765 C   0  0  0  0  0  0  0  0  0  0  0  0
    4.0030   -0.7865   31.2090 H   0  0  0  0  0  0  0  0  0  0  0  0
    3.0901   -2.2668   30.8983 H   0  0  0  0  0  0  0  0  0  0  0  0
    5.0289   -1.0823   29.5060 C   0  0  0  0  0  0  0  0  0  0  0  0
    5.0111   -0.6778   28.5916 O   0  0  0  0  0  0  0  0  0  0  0  0
    5.7517   -0.8311   30.1498 C   0  0  0  0  0  0  0  0  0  0  0  0
    4.3100   -0.9214   27.9671 H   0  0  0  0  0  0  0  0  0  0  0  0
    3.7021   -4.7380   28.9162 C   0  0  0  0  0  0  0  0  0  0  0  0
    3.7786   -5.4849   29.5767 C   0  0  0  0  0  0  0  0  0  0  0  0
    2.9592   -5.9747   29.8747 C   0  0  0  0  0  0  0  0  0  0  0  0
    2.2711   -5.5070   30.4294 O   0  0  0  0  0  0  0  0  0  0  0  0
    2.8280   -6.9323   29.6180 N   0  0  0  0  0  0  0  0  0  0  0  0
    3.5054   -7.3927   29.0719 H   0  0  0  0  0  0  0  0  0  0  0  0
    2.0214   -7.4144   29.9114 H   0  0  0  0  0  0  0  0  0  0  0  0
    5.4907   -5.4559   25.9657 C   0  0  0  0  0  0  0  0  0  0  0  0
    4.9568   -5.8297   25.2074 C   0  0  0  0  0  0  0  0  0  0  0  0
    4.7108   -6.7989   25.1991 C   0  0  0  0  0  0  0  0  0  0  0  0
    4.7113   -7.3222   26.0512 O   0  0  0  0  0  0  0  0  0  0  0  0
    4.4643   -7.2449   24.3386 N   0  0  0  0  0  0  0  0  0  0  0  0
    4.4638   -6.7297   23.4996 H   0  0  0  0  0  0  0  0  0  0  0  0
    4.2221   -8.1992   24.3304 H   0  0  0  0  0  0  0  0  0  0  0  0
    7.7048   -3.8987   22.0152 C   0  0  0  0  0  0  0  0  0  0  0  0
    6.9840   -4.0570   21.3403 O   0  0  0  0  0  0  0  0  0  0  0  0
    6.8901   -4.9294   20.9267 H   0  0  0  0  0  0  0  0  0  0  0  0
    8.3124   -0.4617   20.4768 C   0  0  0  0  0  0  0  0  0  0  0  0
    7.4541   -0.0531   20.1663 C   0  0  0  0  0  0  0  0  0  0  0  0
    6.7184   -0.5275   19.6829 C   0  0  0  0  0  0  0  0  0  0  0  0
    5.9904    0.1339   19.5025 N   0  0  0  0  0  0  0  0  0  0  0  0
    6.2763    1.0172   19.8743 C   0  0  0  0  0  0  0  0  0  0  0  0
    7.1809    0.9014   20.2846 N   0  0  0  0  0  0  0  0  0  0  0  0
    7.7097    1.6041   20.7272 H   0  0  0  0  0  0  0  0  0  0  0  0
 95 96  1  0  0  0
 95 97  1  0  0  0
 95 98  1  0  0  0
 96 91  1  0  0  0
 96 99  1  0  0  0
 91 92  2  0  0  0
 91 93  1  0  0  0
 93 90  1  0  0  0
 93 94  1  0  0  0
 90103  1  0  0  0
 90 86  1  0  0  0
103104  1  0  0  0
104105  1  0  0  0
105106  2  0  0  0
105107  1  0  0  0
107108  1  0  0  0
107109  1  0  0  0
 86 87  2  0  0  0
 86 88  1  0  0  0
 88 85  1  0  0  0
 88 89  1  0  0  0
 85110  1  0  0  0
 85 81  1  0  0  0
110111  1  0  0  0
111112  1  0  0  0
112113  2  0  0  0
112114  1  0  0  0
114115  1  0  0  0
114116  1  0  0  0
 81 82  2  0  0  0
 81 83  1  0  0  0
 83 79  1  0  0  0
 83 84  1  0  0  0
 79 80  1  0  0  0
 79 75  1  0  0  0
 75 76  2  0  0  0
 75 77  1  0  0  0
 77 74  1  0  0  0
 77 78  1  0  0  0
 74117  1  0  0  0
 74 70  1  0  0  0
117118  1  0  0  0
118119  1  0  0  0
 70 71  2  0  0  0
 70 72  1  0  0  0
 72 69  1  0  0  0
 72 73  1  0  0  0
 69120  1  0  0  0
 69 65  1  0  0  0
120121  1  0  0  0
121125  1  0  0  0
121122  2  0  0  0
122123  1  0  0  0
123124  2  0  0  0
124125  1  0  0  0
125126  1  0  0  0
 65 66  2  0  0  0
 65 67  1  0  0  0
 67  1  1  0  0  0
 67 68  1  0  0  0
  1  2  1  0  0  0
  1 10  1  0  0  0
  2  8  2  0  0  0
  2  3  1  0  0  0
  3  4  2  0  0  0
  4  5  1  0  0  0
  5  6  1  0  0  0
  5  7  2  0  0  0
  6  9  1  0  0  0
  7  8  1  0  0  0
 10 11  2  0  0  0
 10 12  1  0  0  0
 12 14  1  0  0  0
 12 13  1  0  0  0
 14 58  1  0  0  0
 14 15  1  0  0  0
 58 59  1  0  0  0
 59 60  1  0  0  0
 60 61  1  0  0  0
 61 62  1  0  0  0
 62 63  1  0  0  0
 62 64  1  0  0  0
 15 16  2  0  0  0
 15 17  1  0  0  0
 17 19  1  0  0  0
 17 18  1  0  0  0
 19 51  1  0  0  0
 19 20  1  0  0  0
 51 52  1  0  0  0
 52 53  1  0  0  0
 53 54  2  0  0  0
 53 55  1  0  0  0
 55 56  1  0  0  0
 55 57  1  0  0  0
 20 21  2  0  0  0
 20 22  1  0  0  0
 22 24  1  0  0  0
 22 23  1  0  0  0
 24 44  1  0  0  0
 24 25  1  0  0  0
 44 45  1  0  0  0
 45 49  1  0  0  0
 45 46  2  0  0  0
 46 47  1  0  0  0
 47 48  2  0  0  0
 48 49  1  0  0  0
 49 50  1  0  0  0
 25 26  2  0  0  0
 25 27  1  0  0  0
 27 29  1  0  0  0
 27 28  1  0  0  0
 29 41  1  0  0  0
 29 30  1  0  0  0
 41 42  1  0  0  0
 42 43  1  0  0  0
 30 31  2  0  0  0
 30 32  1  0  0  0
 32 36  1  0  0  0
 32 33  1  0  0  0
 33 34  1  0  0  0
 34 35  1  0  0  0
 35 36  1  0  0  0
 36 37  1  0  0  0
 37 38  1  0  0  0
 37 39  2  0  0  0
 38 40  1  0  0  0
 99100  1  0  0  0
 99101  1  0  0  0
100102  1  0  0  0
M  END
> <minimizedAffinity>
-6.54154

$$$$



126129  0  0  0  0  0  0  0  0999 V2000
    7.4721    0.6316   21.2692 C   0  0  0  0  0  0  0  0  0  0  0  0
    7.0669    0.2366   20.4447 C   0  0  0  0  0  0  0  0  0  0  0  0
    6.6766   -0.6837   20.4709 C   0  0  0  0  0  0  0  0  0  0  0  0
    6.2714   -1.0786   19.6463 C   0  0  0  0  0  0  0  0  0  0  0  0
    6.2566   -0.5532   18.7956 C   0  0  0  0  0  0  0  0  0  0  0  0
    5.8514   -0.9481   17.9710 O   0  0  0  0  0  0  0  0  0  0  0  0
    6.6469    0.3671   18.7694 C   0  0  0  0  0  0  0  0  0  0  0  0
    7.0521    0.7620   19.5939 C   0  0  0  0  0  0  0  0  0  0  0  0
    5.4856   -1.8104   17.9956 H   0  0  0  0  0  0  0  0  0  0  0  0
    8.4516    0.8308   21.2988 C   0  0  0  0  0  0  0  0  0  0  0  0
    8.9215    1.1522   20.4767 O   0  0  0  0  0  0  0  0  0  0  0  0
    8.9611    0.7087   22.1505 N   0  0  0  0  0  0  0  0  0  0  0  0
    8.4985    0.3922   22.9599 H   0  0  0  0  0  0  0  0  0  0  0  0
    9.9407    0.9079   22.1802 C   0  0  0  0  0  0  0  0  0  0  0  0
   10.2560    1.8441   22.3352 C   0  0  0  0  0  0  0  0  0  0  0  0
   10.9031    2.2654   21.6998 O   0  0  0  0  0  0  0  0  0  0  0  0
    9.9243    2.3590   23.1257 N   0  0  0  0  0  0  0  0  0  0  0  0
    9.2873    1.9442   23.7513 H   0  0  0  0  0  0  0  0  0  0  0  0
   10.2397    3.2952   23.2808 C   0  0  0  0  0  0  0  0  0  0  0  0
    9.5779    4.0428   23.3371 C   0  0  0  0  0  0  0  0  0  0  0  0
    9.1181    4.3669   22.5103 O   0  0  0  0  0  0  0  0  0  0  0  0
    9.3759    4.4663   24.2202 N   0  0  0  0  0  0  0  0  0  0  0  0
    9.8286    4.1472   25.0342 H   0  0  0  0  0  0  0  0  0  0  0  0
    8.7142    5.2139   24.2765 C   0  0  0  0  0  0  0  0  0  0  0  0
    9.0254    6.1625   24.2189 C   0  0  0  0  0  0  0  0  0  0  0  0
    8.7422    6.7358   23.4501 O   0  0  0  0  0  0  0  0  0  0  0  0
    9.6199    6.5378   24.9301 N   0  0  0  0  0  0  0  0  0  0  0  0
    9.8987    5.9733   25.6870 H   0  0  0  0  0  0  0  0  0  0  0  0
    9.9311    7.4863   24.8725 C   0  0  0  0  0  0  0  0  0  0  0  0
    9.4399    8.2045   25.3654 C   0  0  0  0  0  0  0  0  0  0  0  0
    9.0742    8.9916   24.8686 O   0  0  0  0  0  0  0  0  0  0  0  0
    9.3143    8.1356   26.3551 N   0  0  0  0  0  0  0  0  0  0  0  0
    9.6407    7.3920   26.9386 C   0  0  0  0  0  0  0  0  0  0  0  0
    9.3684    7.5951   27.8792 C   0  0  0  0  0  0  0  0  0  0  0  0
    8.8737    8.4642   27.8769 C   0  0  0  0  0  0  0  0  0  0  0  0
    8.8403    8.7982   26.9350 C   0  0  0  0  0  0  0  0  0  0  0  0
    8.4086    9.6460   26.6270 C   0  0  0  0  0  0  0  0  0  0  0  0
    8.9327   10.4976   26.6130 O   0  0  0  0  0  0  0  0  0  0  0  0
    7.4528    9.6423   26.3329 O   0  0  0  0  0  0  0  0  0  0  0  0
    9.8283   10.5010   26.8885 H   0  0  0  0  0  0  0  0  0  0  0  0
   10.7336    7.7168   24.3220 C   0  0  0  0  0  0  0  0  0  0  0  0
   11.6476    7.6647   24.7243 S   0  0  0  0  0  0  0  0  0  0  0  0
   11.7994    7.2806   26.0201 H   0  0  0  0  0  0  0  0  0  0  0  0
    7.7412    5.0129   24.3905 C   0  0  0  0  0  0  0  0  0  0  0  0
    7.3462    4.9575   25.3074 C   0  0  0  0  0  0  0  0  0  0  0  0
    6.6257    5.5464   25.6737 C   0  0  0  0  0  0  0  0  0  0  0  0
    6.4364    5.2562   26.6117 N   0  0  0  0  0  0  0  0  0  0  0  0
    7.0399    4.4879   26.8253 C   0  0  0  0  0  0  0  0  0  0  0  0
    7.6022    4.3033   26.0191 N   0  0  0  0  0  0  0  0  0  0  0  0
    8.2874    3.6009   25.9401 H   0  0  0  0  0  0  0  0  0  0  0  0
   11.2167    3.4838   23.3795 C   0  0  0  0  0  0  0  0  0  0  0  0
   11.6238    4.2698   22.9143 C   0  0  0  0  0  0  0  0  0  0  0  0
   12.5994    4.4626   23.0189 C   0  0  0  0  0  0  0  0  0  0  0  0
   12.9913    5.2904   22.6173 O   0  0  0  0  0  0  0  0  0  0  0  0
   13.1831    3.8276   23.5248 N   0  0  0  0  0  0  0  0  0  0  0  0
   12.7972    3.0127   23.9201 H   0  0  0  0  0  0  0  0  0  0  0  0
   14.1437    4.0174   23.6278 H   0  0  0  0  0  0  0  0  0  0  0  0
   10.6048    0.1709   22.0548 C   0  0  0  0  0  0  0  0  0  0  0  0
   10.7136   -0.5296   22.7602 C   0  0  0  0  0  0  0  0  0  0  0  0
   11.2726   -1.3388   22.5793 C   0  0  0  0  0  0  0  0  0  0  0  0
   11.8660   -1.7067   23.2951 C   0  0  0  0  0  0  0  0  0  0  0  0
   11.6197   -2.5567   23.7609 N   0  0  0  0  0  0  0  0  0  0  0  0
   10.7631   -3.0483   23.5058 H   0  0  0  0  0  0  0  0  0  0  0  0
   12.2250   -2.9320   24.4910 H   0  0  0  0  0  0  0  0  0  0  0  0
    6.6075    1.7654   22.2524 C   0  0  0  0  0  0  0  0  0  0  0  0
    6.8915    2.5080   21.6458 O   0  0  0  0  0  0  0  0  0  0  0  0
    6.8978    0.8272   22.0641 N   0  0  0  0  0  0  0  0  0  0  0  0
    6.6182    0.0962   22.6613 H   0  0  0  0  0  0  0  0  0  0  0  0
    6.0332    1.9611   23.0474 C   0  0  0  0  0  0  0  0  0  0  0  0
    6.5148    1.1786   24.5156 C   0  0  0  0  0  0  0  0  0  0  0  0
    7.2922    1.8027   24.5933 O   0  0  0  0  0  0  0  0  0  0  0  0
    5.8853    1.2577   23.7426 N   0  0  0  0  0  0  0  0  0  0  0  0
    5.1199    0.6432   23.6661 H   0  0  0  0  0  0  0  0  0  0  0  0
    6.3669    0.4752   25.2109 C   0  0  0  0  0  0  0  0  0  0  0  0
    6.5067   -1.2500   25.1474 C   0  0  0  0  0  0  0  0  0  0  0  0
    5.5127   -1.3277   25.0712 O   0  0  0  0  0  0  0  0  0  0  0  0
    6.9338   -0.3485   25.2173 N   0  0  0  0  0  0  0  0  0  0  0  0
    7.9124   -0.2720   25.2924 H   0  0  0  0  0  0  0  0  0  0  0  0
    7.0736   -2.0738   25.1539 C   0  0  0  0  0  0  0  0  0  0  0  0
    8.0033   -2.0437   24.7869 C   0  0  0  0  0  0  0  0  0  0  0  0
    6.9685   -3.8022   25.1167 C   0  0  0  0  0  0  0  0  0  0  0  0
    7.5890   -3.8230   24.3328 O   0  0  0  0  0  0  0  0  0  0  0  0
    6.7108   -2.9275   25.5273 N   0  0  0  0  0  0  0  0  0  0  0  0
    6.0999   -2.9070   26.2990 H   0  0  0  0  0  0  0  0  0  0  0  0
    6.6057   -4.6560   25.4901 C   0  0  0  0  0  0  0  0  0  0  0  0
    5.2241   -5.3969   24.7537 C   0  0  0  0  0  0  0  0  0  0  0  0
    4.6241   -4.7633   25.2419 O   0  0  0  0  0  0  0  0  0  0  0  0
    6.2149   -5.3433   24.8778 N   0  0  0  0  0  0  0  0  0  0  0  0
    6.8057   -5.9671   24.3971 H   0  0  0  0  0  0  0  0  0  0  0  0
    4.8334   -6.0842   24.1413 C   0  0  0  0  0  0  0  0  0  0  0  0
    3.6702   -7.2143   24.7495 C   0  0  0  0  0  0  0  0  0  0  0  0
    4.4090   -7.7693   25.1315 O   0  0  0  0  0  0  0  0  0  0  0  0
    3.8823   -6.3717   24.2544 N   0  0  0  0  0  0  0  0  0  0  0  0
    3.1549   -5.8253   23.8783 H   0  0  0  0  0  0  0  0  0  0  0  0
    2.0955   -6.9574   25.4237 N   0  0  0  0  0  0  0  0  0  0  0  0
    2.7190   -7.5018   24.8625 C   0  0  0  0  0  0  0  0  0  0  0  0
    1.1254   -7.2506   25.5391 H   0  0  0  0  0  0  0  0  0  0  0  0
    2.4297   -6.1089   25.8808 H   0  0  0  0  0  0  0  0  0  0  0  0
    2.3914   -8.3335   24.4144 C   0  0  0  0  0  0  0  0  0  0  0  0
    2.5408   -8.4655   23.4345 O   0  0  0  0  0  0  0  0  0  0  0  0
    1.9145   -9.0333   24.9463 C   0  0  0  0  0  0  0  0  0  0  0  0
    3.0034   -7.7867   22.9186 H   0  0  0  0  0  0  0  0  0  0  0  0
    5.3937   -6.4840   23.4159 C   0  0  0  0  0  0  0  0  0  0  0  0
    5.2495   -6.2109   22.4648 C   0  0  0  0  0  0  0  0  0  0  0  0
    6.0187   -6.1995   21.8258 C   0  0  0  0  0  0  0  0  0  0  0  0
    6.8506   -6.7133   22.0354 O   0  0  0  0  0  0  0  0  0  0  0  0
    5.9558   -5.6742   20.9772 N   0  0  0  0  0  0  0  0  0  0  0  0
    5.1368   -5.1684   20.7709 H   0  0  0  0  0  0  0  0  0  0  0  0
    6.7130   -5.6630   20.3481 H   0  0  0  0  0  0  0  0  0  0  0  0
    6.6336   -4.8225   26.4757 C   0  0  0  0  0  0  0  0  0  0  0  0
    7.1889   -5.5697   26.8410 C   0  0  0  0  0  0  0  0  0  0  0  0
    7.0912   -5.8437   27.7977 C   0  0  0  0  0  0  0  0  0  0  0  0
    7.4823   -5.2767   28.5227 O   0  0  0  0  0  0  0  0  0  0  0  0
    6.6023   -6.6848   28.0295 N   0  0  0  0  0  0  0  0  0  0  0  0
    6.2173   -7.2430   27.3158 H   0  0  0  0  0  0  0  0  0  0  0  0
    6.5061   -6.9546   28.9715 H   0  0  0  0  0  0  0  0  0  0  0  0
    5.6521    0.5956   25.8997 C   0  0  0  0  0  0  0  0  0  0  0  0
    5.7982    1.2183   26.6684 O   0  0  0  0  0  0  0  0  0  0  0  0
    5.1048    1.3351   27.3366 H   0  0  0  0  0  0  0  0  0  0  0  0
    5.6068    2.8602   23.1470 C   0  0  0  0  0  0  0  0  0  0  0  0
    4.6277    2.9709   22.9763 C   0  0  0  0  0  0  0  0  0  0  0  0
    3.9033    2.9350   23.6648 C   0  0  0  0  0  0  0  0  0  0  0  0
    3.0289    3.0788   23.2013 N   0  0  0  0  0  0  0  0  0  0  0  0
    3.2130    3.2036   22.2263 C   0  0  0  0  0  0  0  0  0  0  0  0
    4.2011    3.1369   22.0873 N   0  0  0  0  0  0  0  0  0  0  0  0
    4.6713    3.2201   21.2264 H   0  0  0  0  0  0  0  0  0  0  0  0
 95 96  1  0  0  0
 95 97  1  0  0  0
 95 98  1  0  0  0
 96 91  1  0  0  0
 96 99  1  0  0  0
 91 92  2  0  0  0
 91 93  1  0  0  0
 93 90  1  0  0  0
 93 94  1  0  0  0
 90103  1  0  0  0
 90 86  1  0  0  0
103104  1  0  0  0
104105  1  0  0  0
105106  2  0  0  0
105107  1  0  0  0
107108  1  0  0  0
107109  1  0  0  0
 86 87  2  0  0  0
 86 88  1  0  0  0
 88 85  1  0  0  0
 88 89  1  0  0  0
 85110  1  0  0  0
 85 81  1  0  0  0
110111  1  0  0  0
111112  1  0  0  0
112113  2  0  0  0
112114  1  0  0  0
114115  1  0  0  0
114116  1  0  0  0
 81 82  2  0  0  0
 81 83  1  0  0  0
 83 79  1  0  0  0
 83 84  1  0  0  0
 79 80  1  0  0  0
 79 75  1  0  0  0
 75 76  2  0  0  0
 75 77  1  0  0  0
 77 74  1  0  0  0
 77 78  1  0  0  0
 74117  1  0  0  0
 74 70  1  0  0  0
117118  1  0  0  0
118119  1  0  0  0
 70 71  2  0  0  0
 70 72  1  0  0  0
 72 69  1  0  0  0
 72 73  1  0  0  0
 69120  1  0  0  0
 69 65  1  0  0  0
120121  1  0  0  0
121125  1  0  0  0
121122  2  0  0  0
122123  1  0  0  0
123124  2  0  0  0
124125  1  0  0  0
125126  1  0  0  0
 65 66  2  0  0  0
 65 67  1  0  0  0
 67  1  1  0  0  0
 67 68  1  0  0  0
  1  2  1  0  0  0
  1 10  1  0  0  0
  2  8  2  0  0  0
  2  3  1  0  0  0
  3  4  2  0  0  0
  4  5  1  0  0  0
  5  6  1  0  0  0
  5  7  2  0  0  0
  6  9  1  0  0  0
  7  8  1  0  0  0
 10 11  2  0  0  0
 10 12  1  0  0  0
 12 14  1  0  0  0
 12 13  1  0  0  0
 14 58  1  0  0  0
 14 15  1  0  0  0
 58 59  1  0  0  0
 59 60  1  0  0  0
 60 61  1  0  0  0
 61 62  1  0  0  0
 62 63  1  0  0  0
 62 64  1  0  0  0
 15 16  2  0  0  0
 15 17  1  0  0  0
 17 19  1  0  0  0
 17 18  1  0  0  0
 19 51  1  0  0  0
 19 20  1  0  0  0
 51 52  1  0  0  0
 52 53  1  0  0  0
 53 54  2  0  0  0
 53 55  1  0  0  0
 55 56  1  0  0  0
 55 57  1  0  0  0
 20 21  2  0  0  0
 20 22  1  0  0  0
 22 24  1  0  0  0
 22 23  1  0  0  0
 24 44  1  0  0  0
 24 25  1  0  0  0
 44 45  1  0  0  0
 45 49  1  0  0  0
 45 46  2  0  0  0
 46 47  1  0  0  0
 47 48  2  0  0  0
 48 49  1  0  0  0
 49 50  1  0  0  0
 25 26  2  0  0  0
 25 27  1  0  0  0
 27 29  1  0  0  0
 27 28  1  0  0  0
 29 41  1  0  0  0
 29 30  1  0  0  0
 41 42  1  0  0  0
 42 43  1  0  0  0
 30 31  2  0  0  0
 30 32  1  0  0  0
 32 36  1  0  0  0
 32 33  1  0  0  0
 33 34  1  0  0  0
 34 35  1  0  0  0
 35 36  1  0  0  0
 36 37  1  0  0  0
 37 38  1  0  0  0
 37 39  2  0  0  0
 38 40  1  0  0  0
 99100  1  0  0  0
 99101  1  0  0  0
100102  1  0  0  0
M  END
> <minimizedAffinity>
-6.48917

$$$$



126129  0  0  0  0  0  0  0  0999 V2000
   10.8417    0.4991   22.0926 C   0  0  0  0  0  0  0  0  0  0  0  0
   11.6402    0.0709   22.5156 C   0  0  0  0  0  0  0  0  0  0  0  0
   11.5557   -0.3733   23.4075 C   0  0  0  0  0  0  0  0  0  0  0  0
   12.3543   -0.8015   23.8305 C   0  0  0  0  0  0  0  0  0  0  0  0
   13.2374   -0.7855   23.3616 C   0  0  0  0  0  0  0  0  0  0  0  0
   14.0359   -1.2137   23.7847 O   0  0  0  0  0  0  0  0  0  0  0  0
   13.3219   -0.3413   22.4697 C   0  0  0  0  0  0  0  0  0  0  0  0
   12.5234    0.0869   22.0467 C   0  0  0  0  0  0  0  0  0  0  0  0
   13.9566   -1.6300   24.6204 H   0  0  0  0  0  0  0  0  0  0  0  0
   10.7483    1.4947   22.0949 C   0  0  0  0  0  0  0  0  0  0  0  0
   10.6138    1.9863   21.2345 O   0  0  0  0  0  0  0  0  0  0  0  0
   10.7893    1.9988   22.9576 N   0  0  0  0  0  0  0  0  0  0  0  0
   10.9217    1.5148   23.8046 H   0  0  0  0  0  0  0  0  0  0  0  0
   10.6959    2.9945   22.9599 C   0  0  0  0  0  0  0  0  0  0  0  0
    9.8037    3.4125   23.1305 C   0  0  0  0  0  0  0  0  0  0  0  0
    9.5019    4.1897   22.5783 O   0  0  0  0  0  0  0  0  0  0  0  0
    9.2131    3.0535   23.8532 N   0  0  0  0  0  0  0  0  0  0  0  0
    9.5102    2.2883   24.3968 H   0  0  0  0  0  0  0  0  0  0  0  0
    8.3209    3.4715   24.0238 C   0  0  0  0  0  0  0  0  0  0  0  0
    8.2077    4.1180   24.7782 C   0  0  0  0  0  0  0  0  0  0  0  0
    7.7532    4.9948   24.6214 O   0  0  0  0  0  0  0  0  0  0  0  0
    8.5491    3.8878   25.6895 N   0  0  0  0  0  0  0  0  0  0  0  0
    8.9966    3.0245   25.8439 H   0  0  0  0  0  0  0  0  0  0  0  0
    8.4359    4.5343   26.4440 C   0  0  0  0  0  0  0  0  0  0  0  0
    9.2214    5.0550   26.7783 C   0  0  0  0  0  0  0  0  0  0  0  0
   10.0172    4.5765   27.1494 O   0  0  0  0  0  0  0  0  0  0  0  0
    9.2111    6.0543   26.7414 N   0  0  0  0  0  0  0  0  0  0  0  0
    8.4276    6.5253   26.3761 H   0  0  0  0  0  0  0  0  0  0  0  0
    9.9966    6.5751   27.0757 C   0  0  0  0  0  0  0  0  0  0  0  0
   10.6130    7.0216   26.4272 C   0  0  0  0  0  0  0  0  0  0  0  0
   11.5633    6.7195   26.3514 O   0  0  0  0  0  0  0  0  0  0  0  0
   10.2792    7.7704   25.8545 N   0  0  0  0  0  0  0  0  0  0  0  0
    9.3512    8.1430   25.8562 C   0  0  0  0  0  0  0  0  0  0  0  0
    9.3133    8.8808   25.1823 C   0  0  0  0  0  0  0  0  0  0  0  0
   10.2179    8.9642   24.7641 C   0  0  0  0  0  0  0  0  0  0  0  0
   10.8148    8.2779   25.1796 C   0  0  0  0  0  0  0  0  0  0  0  0
   11.7782    8.1259   24.9588 C   0  0  0  0  0  0  0  0  0  0  0  0
   12.4919    8.5420   25.5222 O   0  0  0  0  0  0  0  0  0  0  0  0
   12.0278    7.5577   24.1747 O   0  0  0  0  0  0  0  0  0  0  0  0
   12.2580    9.0743   26.2569 H   0  0  0  0  0  0  0  0  0  0  0  0
   10.1657    6.6493   28.0586 C   0  0  0  0  0  0  0  0  0  0  0  0
    9.6166    7.2732   28.6147 S   0  0  0  0  0  0  0  0  0  0  0  0
    8.6399    8.0208   28.0344 H   0  0  0  0  0  0  0  0  0  0  0  0
    7.5372    4.6600   26.8641 C   0  0  0  0  0  0  0  0  0  0  0  0
    7.2479    4.0645   27.6135 C   0  0  0  0  0  0  0  0  0  0  0  0
    6.9990    4.3593   28.5362 C   0  0  0  0  0  0  0  0  0  0  0  0
    6.7539    3.5466   29.0647 N   0  0  0  0  0  0  0  0  0  0  0  0
    6.8513    2.7494   28.4689 C   0  0  0  0  0  0  0  0  0  0  0  0
    7.1566    3.0695   27.5719 N   0  0  0  0  0  0  0  0  0  0  0  0
    7.3358    2.5043   26.7860 H   0  0  0  0  0  0  0  0  0  0  0  0
    7.5419    3.2431   23.4399 C   0  0  0  0  0  0  0  0  0  0  0  0
    6.9876    2.4350   23.6391 C   0  0  0  0  0  0  0  0  0  0  0  0
    6.2996    2.1262   22.9824 C   0  0  0  0  0  0  0  0  0  0  0  0
    6.0731    2.6943   22.1912 O   0  0  0  0  0  0  0  0  0  0  0  0
    5.8381    1.2494   23.1169 N   0  0  0  0  0  0  0  0  0  0  0  0
    6.0611    0.6901   23.8959 H   0  0  0  0  0  0  0  0  0  0  0  0
    5.1607    0.9454   22.4704 H   0  0  0  0  0  0  0  0  0  0  0  0
   11.4947    3.5720   22.7917 C   0  0  0  0  0  0  0  0  0  0  0  0
   12.2176    3.6383   23.4797 C   0  0  0  0  0  0  0  0  0  0  0  0
   12.8012    4.4495   23.5151 C   0  0  0  0  0  0  0  0  0  0  0  0
   13.5238    4.5757   22.8355 C   0  0  0  0  0  0  0  0  0  0  0  0
   14.4402    4.8517   23.1253 N   0  0  0  0  0  0  0  0  0  0  0  0
   14.6378    5.0046   24.1143 H   0  0  0  0  0  0  0  0  0  0  0  0
   15.1772    4.9804   22.4322 H   0  0  0  0  0  0  0  0  0  0  0  0
    9.2622   -0.2105   22.1310 C   0  0  0  0  0  0  0  0  0  0  0  0
    9.0928    0.2147   23.0202 O   0  0  0  0  0  0  0  0  0  0  0  0
   10.1366   -0.0682   21.6672 N   0  0  0  0  0  0  0  0  0  0  0  0
   10.3033   -0.4868   20.7919 H   0  0  0  0  0  0  0  0  0  0  0  0
    8.5571   -0.7779   21.7057 C   0  0  0  0  0  0  0  0  0  0  0  0
    8.2344   -2.2535   22.5532 C   0  0  0  0  0  0  0  0  0  0  0  0
    9.1201   -2.6147   22.2617 O   0  0  0  0  0  0  0  0  0  0  0  0
    7.9528   -1.3351   22.2752 N   0  0  0  0  0  0  0  0  0  0  0  0
    7.0808   -0.9795   22.5622 H   0  0  0  0  0  0  0  0  0  0  0  0
    7.6301   -2.8108   23.1227 C   0  0  0  0  0  0  0  0  0  0  0  0
    7.2038   -2.2957   24.7205 C   0  0  0  0  0  0  0  0  0  0  0  0
    8.0670   -2.6613   25.0686 O   0  0  0  0  0  0  0  0  0  0  0  0
    6.9854   -2.3704   23.7475 N   0  0  0  0  0  0  0  0  0  0  0  0
    6.1356   -2.0105   23.4047 H   0  0  0  0  0  0  0  0  0  0  0  0
    6.5591   -1.8553   25.3453 C   0  0  0  0  0  0  0  0  0  0  0  0
    6.6497   -0.8812   25.5525 C   0  0  0  0  0  0  0  0  0  0  0  0
    5.4831   -2.1458   26.6711 C   0  0  0  0  0  0  0  0  0  0  0  0
    5.8779   -1.3690   27.1616 O   0  0  0  0  0  0  0  0  0  0  0  0
    5.8238   -2.3890   25.7629 N   0  0  0  0  0  0  0  0  0  0  0  0
    5.4352   -3.1539   25.2799 H   0  0  0  0  0  0  0  0  0  0  0  0
    4.7478   -2.6796   27.0888 C   0  0  0  0  0  0  0  0  0  0  0  0
    5.0097   -4.2107   27.8550 C   0  0  0  0  0  0  0  0  0  0  0  0
    5.2327   -3.7442   28.7109 O   0  0  0  0  0  0  0  0  0  0  0  0
    4.7672   -3.6784   27.0439 N   0  0  0  0  0  0  0  0  0  0  0  0
    4.5477   -4.1376   26.2012 H   0  0  0  0  0  0  0  0  0  0  0  0
    5.0292   -5.2095   27.8101 C   0  0  0  0  0  0  0  0  0  0  0  0
    3.5681   -6.0405   27.3923 C   0  0  0  0  0  0  0  0  0  0  0  0
    3.2271   -5.9090   28.3231 O   0  0  0  0  0  0  0  0  0  0  0  0
    4.4691   -5.6907   27.1358 N   0  0  0  0  0  0  0  0  0  0  0  0
    4.8048   -5.8201   26.2193 H   0  0  0  0  0  0  0  0  0  0  0  0
    3.2823   -7.4276   26.3951 N   0  0  0  0  0  0  0  0  0  0  0  0
    3.0080   -6.5217   26.7179 C   0  0  0  0  0  0  0  0  0  0  0  0
    2.7111   -7.9185   25.7073 H   0  0  0  0  0  0  0  0  0  0  0  0
    4.1334   -7.8606   26.7537 H   0  0  0  0  0  0  0  0  0  0  0  0
    2.1736   -6.0972   26.3664 C   0  0  0  0  0  0  0  0  0  0  0  0
    2.2181   -5.2060   25.9149 O   0  0  0  0  0  0  0  0  0  0  0  0
    1.2948   -6.5637   26.4665 C   0  0  0  0  0  0  0  0  0  0  0  0
    3.0706   -4.7535   25.8178 H   0  0  0  0  0  0  0  0  0  0  0  0
    5.6088   -5.7271   28.4395 C   0  0  0  0  0  0  0  0  0  0  0  0
    6.4287   -6.1879   28.0999 C   0  0  0  0  0  0  0  0  0  0  0  0
    7.1806   -6.3963   28.7255 C   0  0  0  0  0  0  0  0  0  0  0  0
    6.9871   -6.6446   29.6746 O   0  0  0  0  0  0  0  0  0  0  0  0
    8.1259   -6.3563   28.4018 N   0  0  0  0  0  0  0  0  0  0  0  0
    8.3164   -6.1118   27.4674 H   0  0  0  0  0  0  0  0  0  0  0  0
    8.8661   -6.5615   29.0177 H   0  0  0  0  0  0  0  0  0  0  0  0
    3.9930   -2.2145   27.5513 C   0  0  0  0  0  0  0  0  0  0  0  0
    3.1130   -2.1073   27.0885 C   0  0  0  0  0  0  0  0  0  0  0  0
    2.3641   -1.6258   27.5437 C   0  0  0  0  0  0  0  0  0  0  0  0
    2.1976   -0.6597   27.3464 O   0  0  0  0  0  0  0  0  0  0  0  0
    1.7815   -2.1105   28.1963 N   0  0  0  0  0  0  0  0  0  0  0  0
    1.9453   -3.0616   28.3905 H   0  0  0  0  0  0  0  0  0  0  0  0
    1.0441   -1.6364   28.6444 H   0  0  0  0  0  0  0  0  0  0  0  0
    7.6706   -3.8084   23.0674 C   0  0  0  0  0  0  0  0  0  0  0  0
    7.0114   -4.3051   22.5028 O   0  0  0  0  0  0  0  0  0  0  0  0
    7.0507   -5.2728   22.4492 H   0  0  0  0  0  0  0  0  0  0  0  0
    8.4562   -0.7880   20.7108 C   0  0  0  0  0  0  0  0  0  0  0  0
    7.7134   -0.2769   20.2783 C   0  0  0  0  0  0  0  0  0  0  0  0
    6.8126   -0.6390   20.0386 C   0  0  0  0  0  0  0  0  0  0  0  0
    6.2834    0.1001   19.6217 N   0  0  0  0  0  0  0  0  0  0  0  0
    6.8572    0.9189   19.6037 C   0  0  0  0  0  0  0  0  0  0  0  0
    7.7410    0.6858   20.0096 N   0  0  0  0  0  0  0  0  0  0  0  0
    8.5042    1.2970   20.1243 H   0  0  0  0  0  0  0  0  0  0  0  0
 95 96  1  0  0  0
 95 97  1  0  0  0
 95 98  1  0  0  0
 96 91  1  0  0  0
 96 99  1  0  0  0
 91 92  2  0  0  0
 91 93  1  0  0  0
 93 90  1  0  0  0
 93 94  1  0  0  0
 90103  1  0  0  0
 90 86  1  0  0  0
103104  1  0  0  0
104105  1  0  0  0
105106  2  0  0  0
105107  1  0  0  0
107108  1  0  0  0
107109  1  0  0  0
 86 87  2  0  0  0
 86 88  1  0  0  0
 88 85  1  0  0  0
 88 89  1  0  0  0
 85110  1  0  0  0
 85 81  1  0  0  0
110111  1  0  0  0
111112  1  0  0  0
112113  2  0  0  0
112114  1  0  0  0
114115  1  0  0  0
114116  1  0  0  0
 81 82  2  0  0  0
 81 83  1  0  0  0
 83 79  1  0  0  0
 83 84  1  0  0  0
 79 80  1  0  0  0
 79 75  1  0  0  0
 75 76  2  0  0  0
 75 77  1  0  0  0
 77 74  1  0  0  0
 77 78  1  0  0  0
 74117  1  0  0  0
 74 70  1  0  0  0
117118  1  0  0  0
118119  1  0  0  0
 70 71  2  0  0  0
 70 72  1  0  0  0
 72 69  1  0  0  0
 72 73  1  0  0  0
 69120  1  0  0  0
 69 65  1  0  0  0
120121  1  0  0  0
121125  1  0  0  0
121122  2  0  0  0
122123  1  0  0  0
123124  2  0  0  0
124125  1  0  0  0
125126  1  0  0  0
 65 66  2  0  0  0
 65 67  1  0  0  0
 67  1  1  0  0  0
 67 68  1  0  0  0
  1  2  1  0  0  0
  1 10  1  0  0  0
  2  8  2  0  0  0
  2  3  1  0  0  0
  3  4  2  0  0  0
  4  5  1  0  0  0
  5  6  1  0  0  0
  5  7  2  0  0  0
  6  9  1  0  0  0
  7  8  1  0  0  0
 10 11  2  0  0  0
 10 12  1  0  0  0
 12 14  1  0  0  0
 12 13  1  0  0  0
 14 58  1  0  0  0
 14 15  1  0  0  0
 58 59  1  0  0  0
 59 60  1  0  0  0
 60 61  1  0  0  0
 61 62  1  0  0  0
 62 63  1  0  0  0
 62 64  1  0  0  0
 15 16  2  0  0  0
 15 17  1  0  0  0
 17 19  1  0  0  0
 17 18  1  0  0  0
 19 51  1  0  0  0
 19 20  1  0  0  0
 51 52  1  0  0  0
 52 53  1  0  0  0
 53 54  2  0  0  0
 53 55  1  0  0  0
 55 56  1  0  0  0
 55 57  1  0  0  0
 20 21  2  0  0  0
 20 22  1  0  0  0
 22 24  1  0  0  0
 22 23  1  0  0  0
 24 44  1  0  0  0
 24 25  1  0  0  0
 44 45  1  0  0  0
 45 49  1  0  0  0
 45 46  2  0  0  0
 46 47  1  0  0  0
 47 48  2  0  0  0
 48 49  1  0  0  0
 49 50  1  0  0  0
 25 26  2  0  0  0
 25 27  1  0  0  0
 27 29  1  0  0  0
 27 28  1  0  0  0
 29 41  1  0  0  0
 29 30  1  0  0  0
 41 42  1  0  0  0
 42 43  1  0  0  0
 30 31  2  0  0  0
 30 32  1  0  0  0
 32 36  1  0  0  0
 32 33  1  0  0  0
 33 34  1  0  0  0
 34 35  1  0  0  0
 35 36  1  0  0  0
 36 37  1  0  0  0
 37 38  1  0  0  0
 37 39  2  0  0  0
 38 40  1  0  0  0
 99100  1  0  0  0
 99101  1  0  0  0
100102  1  0  0  0
M  END
> <minimizedAffinity>
-6.38725

$$$$



126129  0  0  0  0  0  0  0  0999 V2000
    7.5534    1.5344   21.8936 C   0  0  0  0  0  0  0  0  0  0  0  0
    6.9714    1.1043   21.2036 C   0  0  0  0  0  0  0  0  0  0  0  0
    6.5315    0.2272   21.3967 C   0  0  0  0  0  0  0  0  0  0  0  0
    5.9494   -0.2029   20.7066 C   0  0  0  0  0  0  0  0  0  0  0  0
    5.8072    0.2440   19.8234 C   0  0  0  0  0  0  0  0  0  0  0  0
    5.2252   -0.1861   19.1334 O   0  0  0  0  0  0  0  0  0  0  0  0
    6.2471    1.1210   19.6302 C   0  0  0  0  0  0  0  0  0  0  0  0
    6.8292    1.5512   20.3203 C   0  0  0  0  0  0  0  0  0  0  0  0
    4.8130   -1.0079   19.3144 H   0  0  0  0  0  0  0  0  0  0  0  0
    7.3502    2.4601   22.2126 C   0  0  0  0  0  0  0  0  0  0  0  0
    7.7740    3.2475   21.7650 O   0  0  0  0  0  0  0  0  0  0  0  0
    6.7231    2.5984   22.9791 N   0  0  0  0  0  0  0  0  0  0  0  0
    6.3058    1.8232   23.4197 H   0  0  0  0  0  0  0  0  0  0  0  0
    6.5198    3.5242   23.2981 C   0  0  0  0  0  0  0  0  0  0  0  0
    6.8182    3.8168   24.2065 C   0  0  0  0  0  0  0  0  0  0  0  0
    7.7656    4.1007   24.3542 O   0  0  0  0  0  0  0  0  0  0  0  0
    6.1692    3.8255   24.9673 N   0  0  0  0  0  0  0  0  0  0  0  0
    5.2366    3.5460   24.8219 H   0  0  0  0  0  0  0  0  0  0  0  0
    6.4677    4.1181   25.8758 C   0  0  0  0  0  0  0  0  0  0  0  0
    6.5071    5.0920   26.0995 C   0  0  0  0  0  0  0  0  0  0  0  0
    5.8344    5.7218   25.7111 O   0  0  0  0  0  0  0  0  0  0  0  0
    7.2191    5.4360   26.7116 N   0  0  0  0  0  0  0  0  0  0  0  0
    7.8813    4.8159   27.0940 H   0  0  0  0  0  0  0  0  0  0  0  0
    7.2585    6.4098   26.9353 C   0  0  0  0  0  0  0  0  0  0  0  0
    7.7919    7.0330   26.3633 C   0  0  0  0  0  0  0  0  0  0  0  0
    7.4914    7.9787   26.2394 O   0  0  0  0  0  0  0  0  0  0  0  0
    8.6257    6.7105   25.9153 N   0  0  0  0  0  0  0  0  0  0  0  0
    8.9215    5.7795   26.0373 H   0  0  0  0  0  0  0  0  0  0  0  0
    9.1591    7.3337   25.3434 C   0  0  0  0  0  0  0  0  0  0  0  0
    9.5165    7.0221   24.4629 C   0  0  0  0  0  0  0  0  0  0  0  0
   10.3790    6.5177   24.4237 O   0  0  0  0  0  0  0  0  0  0  0  0
    9.0112    7.2150   23.6217 N   0  0  0  0  0  0  0  0  0  0  0  0
    8.1445    7.7095   23.5569 C   0  0  0  0  0  0  0  0  0  0  0  0
    7.8817    7.7473   22.5927 C   0  0  0  0  0  0  0  0  0  0  0  0
    8.5861    7.2762   22.0618 C   0  0  0  0  0  0  0  0  0  0  0  0
    9.2841    6.9472   22.6977 C   0  0  0  0  0  0  0  0  0  0  0  0
   10.1101    6.4395   22.4526 C   0  0  0  0  0  0  0  0  0  0  0  0
   10.0847    5.4415   22.3941 O   0  0  0  0  0  0  0  0  0  0  0  0
   10.9615    6.9298   22.2661 O   0  0  0  0  0  0  0  0  0  0  0  0
    9.2869    4.9822   22.5688 H   0  0  0  0  0  0  0  0  0  0  0  0
    9.3351    8.2686   25.6518 C   0  0  0  0  0  0  0  0  0  0  0  0
   10.2145    8.5008   26.0674 S   0  0  0  0  0  0  0  0  0  0  0  0
   11.1711    7.5452   26.2132 H   0  0  0  0  0  0  0  0  0  0  0  0
    6.7646    6.7605   27.7309 C   0  0  0  0  0  0  0  0  0  0  0  0
    7.1344    6.6225   28.6497 C   0  0  0  0  0  0  0  0  0  0  0  0
    6.8795    5.8909   29.2822 C   0  0  0  0  0  0  0  0  0  0  0  0
    7.4115    6.0080   30.1207 N   0  0  0  0  0  0  0  0  0  0  0  0
    7.9952    6.8120   30.0066 C   0  0  0  0  0  0  0  0  0  0  0  0
    7.8239    7.1917   29.0975 N   0  0  0  0  0  0  0  0  0  0  0  0
    8.2579    7.9864   28.7111 H   0  0  0  0  0  0  0  0  0  0  0  0
    6.7267    3.4369   26.5605 C   0  0  0  0  0  0  0  0  0  0  0  0
    6.0317    2.8367   26.9564 C   0  0  0  0  0  0  0  0  0  0  0  0
    6.2831    2.1841   27.6712 C   0  0  0  0  0  0  0  0  0  0  0  0
    7.0568    2.3770   28.2748 O   0  0  0  0  0  0  0  0  0  0  0  0
    5.7609    1.3385   27.7824 N   0  0  0  0  0  0  0  0  0  0  0  0
    4.9993    1.1487   27.1881 H   0  0  0  0  0  0  0  0  0  0  0  0
    6.0085    0.6960   28.4860 H   0  0  0  0  0  0  0  0  0  0  0  0
    6.0181    4.1572   22.7086 C   0  0  0  0  0  0  0  0  0  0  0  0
    5.0268    4.0692   22.6096 C   0  0  0  0  0  0  0  0  0  0  0  0
    4.5635    4.4862   21.8276 C   0  0  0  0  0  0  0  0  0  0  0  0
    3.6973    4.9683   21.9585 C   0  0  0  0  0  0  0  0  0  0  0  0
    3.2122    5.3478   21.1707 N   0  0  0  0  0  0  0  0  0  0  0  0
    3.6011    5.2431   20.2335 H   0  0  0  0  0  0  0  0  0  0  0  0
    2.3287    5.8396   21.3042 H   0  0  0  0  0  0  0  0  0  0  0  0
    9.2416    1.1494   21.8491 C   0  0  0  0  0  0  0  0  0  0  0  0
    9.3591    1.7555   21.0624 O   0  0  0  0  0  0  0  0  0  0  0  0
    8.3387    1.0388   22.2647 N   0  0  0  0  0  0  0  0  0  0  0  0
    8.2230    0.4422   23.0391 H   0  0  0  0  0  0  0  0  0  0  0  0
   10.0269    0.6538   22.2202 C   0  0  0  0  0  0  0  0  0  0  0  0
    9.9677   -1.0298   22.6228 C   0  0  0  0  0  0  0  0  0  0  0  0
   10.1875   -1.2640   21.6758 O   0  0  0  0  0  0  0  0  0  0  0  0
    9.8874   -0.0709   22.8950 N   0  0  0  0  0  0  0  0  0  0  0  0
    9.6710    0.1597   23.8274 H   0  0  0  0  0  0  0  0  0  0  0  0
    9.8282   -1.7544   23.2976 C   0  0  0  0  0  0  0  0  0  0  0  0
    8.3323   -2.5751   23.5954 C   0  0  0  0  0  0  0  0  0  0  0  0
    8.5742   -3.2639   22.9120 O   0  0  0  0  0  0  0  0  0  0  0  0
    8.9593   -1.8204   23.7882 N   0  0  0  0  0  0  0  0  0  0  0  0
    8.7212   -1.1422   24.4609 H   0  0  0  0  0  0  0  0  0  0  0  0
    7.4634   -2.6411   24.0859 C   0  0  0  0  0  0  0  0  0  0  0  0
    6.9389   -1.8138   24.2874 C   0  0  0  0  0  0  0  0  0  0  0  0
    6.8965   -3.6971   25.3362 C   0  0  0  0  0  0  0  0  0  0  0  0
    7.0186   -2.9668   26.0084 O   0  0  0  0  0  0  0  0  0  0  0  0
    7.1189   -3.5342   24.3750 N   0  0  0  0  0  0  0  0  0  0  0  0
    6.9988   -4.2532   23.7133 H   0  0  0  0  0  0  0  0  0  0  0  0
    6.5520   -4.5903   25.6254 C   0  0  0  0  0  0  0  0  0  0  0  0
    5.2526   -5.3644   24.7814 C   0  0  0  0  0  0  0  0  0  0  0  0
    4.5922   -4.8235   25.3023 O   0  0  0  0  0  0  0  0  0  0  0  0
    6.2325   -5.2478   24.9430 N   0  0  0  0  0  0  0  0  0  0  0  0
    6.8827   -5.7802   24.4302 H   0  0  0  0  0  0  0  0  0  0  0  0
    4.9330   -6.0218   24.0990 C   0  0  0  0  0  0  0  0  0  0  0  0
    3.9294   -7.3416   24.5999 C   0  0  0  0  0  0  0  0  0  0  0  0
    4.7380   -7.8345   24.9211 O   0  0  0  0  0  0  0  0  0  0  0  0
    4.0269   -6.4352   24.1889 N   0  0  0  0  0  0  0  0  0  0  0  0
    3.2309   -5.9498   23.8726 H   0  0  0  0  0  0  0  0  0  0  0  0
    2.6756   -8.3583   23.9720 N   0  0  0  0  0  0  0  0  0  0  0  0
    3.0233   -7.7550   24.6898 C   0  0  0  0  0  0  0  0  0  0  0  0
    1.7514   -8.7799   24.0636 H   0  0  0  0  0  0  0  0  0  0  0  0
    3.2452   -8.5520   23.1483 H   0  0  0  0  0  0  0  0  0  0  0  0
    2.4649   -7.5651   25.4973 C   0  0  0  0  0  0  0  0  0  0  0  0
    2.8308   -7.7418   26.4110 O   0  0  0  0  0  0  0  0  0  0  0  0
    1.5406   -7.1985   25.3911 C   0  0  0  0  0  0  0  0  0  0  0  0
    3.7274   -8.0974   26.5140 H   0  0  0  0  0  0  0  0  0  0  0  0
    5.5195   -6.2658   23.3267 C   0  0  0  0  0  0  0  0  0  0  0  0
    5.3371   -5.8847   22.4204 C   0  0  0  0  0  0  0  0  0  0  0  0
    5.9923   -6.0248   21.6779 C   0  0  0  0  0  0  0  0  0  0  0  0
    6.9083   -5.6281   21.7379 O   0  0  0  0  0  0  0  0  0  0  0  0
    5.7314   -6.5616   20.8755 N   0  0  0  0  0  0  0  0  0  0  0  0
    4.8296   -6.9521   20.8166 H   0  0  0  0  0  0  0  0  0  0  0  0
    6.3764   -6.6994   20.1447 H   0  0  0  0  0  0  0  0  0  0  0  0
    6.5271   -4.8261   26.5968 C   0  0  0  0  0  0  0  0  0  0  0  0
    7.0811   -5.5837   26.9418 C   0  0  0  0  0  0  0  0  0  0  0  0
    7.1114   -5.7746   27.9230 C   0  0  0  0  0  0  0  0  0  0  0  0
    7.3863   -6.6795   28.2480 O   0  0  0  0  0  0  0  0  0  0  0  0
    6.8669   -5.0606   28.5791 N   0  0  0  0  0  0  0  0  0  0  0  0
    6.5964   -4.1698   28.2591 H   0  0  0  0  0  0  0  0  0  0  0  0
    6.8968   -5.2486   29.5451 H   0  0  0  0  0  0  0  0  0  0  0  0
   10.5577   -2.4132   23.4819 C   0  0  0  0  0  0  0  0  0  0  0  0
   11.3237   -2.1588   24.0722 O   0  0  0  0  0  0  0  0  0  0  0  0
   12.0313   -2.7979   24.2509 H   0  0  0  0  0  0  0  0  0  0  0  0
   10.9517    0.8830   21.9165 C   0  0  0  0  0  0  0  0  0  0  0  0
   11.5404    1.4513   22.4913 C   0  0  0  0  0  0  0  0  0  0  0  0
   12.3082    1.1297   23.0454 C   0  0  0  0  0  0  0  0  0  0  0  0
   12.7070    1.9207   23.5096 N   0  0  0  0  0  0  0  0  0  0  0  0
   12.1855    2.7311   23.2423 C   0  0  0  0  0  0  0  0  0  0  0  0
   11.4646    2.4409   22.6130 N   0  0  0  0  0  0  0  0  0  0  0  0
   10.7973    3.0268   22.1878 H   0  0  0  0  0  0  0  0  0  0  0  0
 95 96  1  0  0  0
 95 97  1  0  0  0
 95 98  1  0  0  0
 96 91  1  0  0  0
 96 99  1  0  0  0
 91 92  2  0  0  0
 91 93  1  0  0  0
 93 90  1  0  0  0
 93 94  1  0  0  0
 90103  1  0  0  0
 90 86  1  0  0  0
103104  1  0  0  0
104105  1  0  0  0
105106  2  0  0  0
105107  1  0  0  0
107108  1  0  0  0
107109  1  0  0  0
 86 87  2  0  0  0
 86 88  1  0  0  0
 88 85  1  0  0  0
 88 89  1  0  0  0
 85110  1  0  0  0
 85 81  1  0  0  0
110111  1  0  0  0
111112  1  0  0  0
112113  2  0  0  0
112114  1  0  0  0
114115  1  0  0  0
114116  1  0  0  0
 81 82  2  0  0  0
 81 83  1  0  0  0
 83 79  1  0  0  0
 83 84  1  0  0  0
 79 80  1  0  0  0
 79 75  1  0  0  0
 75 76  2  0  0  0
 75 77  1  0  0  0
 77 74  1  0  0  0
 77 78  1  0  0  0
 74117  1  0  0  0
 74 70  1  0  0  0
117118  1  0  0  0
118119  1  0  0  0
 70 71  2  0  0  0
 70 72  1  0  0  0
 72 69  1  0  0  0
 72 73  1  0  0  0
 69120  1  0  0  0
 69 65  1  0  0  0
120121  1  0  0  0
121125  1  0  0  0
121122  2  0  0  0
122123  1  0  0  0
123124  2  0  0  0
124125  1  0  0  0
125126  1  0  0  0
 65 66  2  0  0  0
 65 67  1  0  0  0
 67  1  1  0  0  0
 67 68  1  0  0  0
  1  2  1  0  0  0
  1 10  1  0  0  0
  2  8  2  0  0  0
  2  3  1  0  0  0
  3  4  2  0  0  0
  4  5  1  0  0  0
  5  6  1  0  0  0
  5  7  2  0  0  0
  6  9  1  0  0  0
  7  8  1  0  0  0
 10 11  2  0  0  0
 10 12  1  0  0  0
 12 14  1  0  0  0
 12 13  1  0  0  0
 14 58  1  0  0  0
 14 15  1  0  0  0
 58 59  1  0  0  0
 59 60  1  0  0  0
 60 61  1  0  0  0
 61 62  1  0  0  0
 62 63  1  0  0  0
 62 64  1  0  0  0
 15 16  2  0  0  0
 15 17  1  0  0  0
 17 19  1  0  0  0
 17 18  1  0  0  0
 19 51  1  0  0  0
 19 20  1  0  0  0
 51 52  1  0  0  0
 52 53  1  0  0  0
 53 54  2  0  0  0
 53 55  1  0  0  0
 55 56  1  0  0  0
 55 57  1  0  0  0
 20 21  2  0  0  0
 20 22  1  0  0  0
 22 24  1  0  0  0
 22 23  1  0  0  0
 24 44  1  0  0  0
 24 25  1  0  0  0
 44 45  1  0  0  0
 45 49  1  0  0  0
 45 46  2  0  0  0
 46 47  1  0  0  0
 47 48  2  0  0  0
 48 49  1  0  0  0
 49 50  1  0  0  0
 25 26  2  0  0  0
 25 27  1  0  0  0
 27 29  1  0  0  0
 27 28  1  0  0  0
 29 41  1  0  0  0
 29 30  1  0  0  0
 41 42  1  0  0  0
 42 43  1  0  0  0
 30 31  2  0  0  0
 30 32  1  0  0  0
 32 36  1  0  0  0
 32 33  1  0  0  0
 33 34  1  0  0  0
 34 35  1  0  0  0
 35 36  1  0  0  0
 36 37  1  0  0  0
 37 38  1  0  0  0
 37 39  2  0  0  0
 38 40  1  0  0  0
 99100  1  0  0  0
 99101  1  0  0  0
100102  1  0  0  0
M  END
> <minimizedAffinity>
-6.33289

$$$$



126129  0  0  0  0  0  0  0  0999 V2000
    7.8765    0.5280   21.6421 C   0  0  0  0  0  0  0  0  0  0  0  0
    7.1786    0.4150   20.9349 C   0  0  0  0  0  0  0  0  0  0  0  0
    6.2162    0.3263   21.1918 C   0  0  0  0  0  0  0  0  0  0  0  0
    5.5183    0.2133   20.4845 C   0  0  0  0  0  0  0  0  0  0  0  0
    5.7828    0.1889   19.5204 C   0  0  0  0  0  0  0  0  0  0  0  0
    5.0849    0.0759   18.8132 O   0  0  0  0  0  0  0  0  0  0  0  0
    6.7452    0.2777   19.2636 C   0  0  0  0  0  0  0  0  0  0  0  0
    7.4430    0.3907   19.9708 C   0  0  0  0  0  0  0  0  0  0  0  0
    4.1832   -0.0072   19.0539 H   0  0  0  0  0  0  0  0  0  0  0  0
    8.3229    1.4141   21.7670 C   0  0  0  0  0  0  0  0  0  0  0  0
    8.4807    2.0098   20.9794 O   0  0  0  0  0  0  0  0  0  0  0  0
    8.6114    1.7044   22.6793 N   0  0  0  0  0  0  0  0  0  0  0  0
    8.4560    1.1179   23.4546 H   0  0  0  0  0  0  0  0  0  0  0  0
    9.0578    2.5905   22.8042 C   0  0  0  0  0  0  0  0  0  0  0  0
    8.5775    3.3305   23.2751 C   0  0  0  0  0  0  0  0  0  0  0  0
    8.2822    3.2112   24.2230 O   0  0  0  0  0  0  0  0  0  0  0  0
    8.3925    4.1897   22.7980 N   0  0  0  0  0  0  0  0  0  0  0  0
    8.6832    4.3070   21.8648 H   0  0  0  0  0  0  0  0  0  0  0  0
    7.9121    4.9296   23.2689 C   0  0  0  0  0  0  0  0  0  0  0  0
    8.4305    5.6739   23.6899 C   0  0  0  0  0  0  0  0  0  0  0  0
    9.0094    6.2620   23.1250 O   0  0  0  0  0  0  0  0  0  0  0  0
    8.3701    5.8302   24.6758 N   0  0  0  0  0  0  0  0  0  0  0  0
    7.8002    5.2513   25.2319 H   0  0  0  0  0  0  0  0  0  0  0  0
    8.8885    6.5745   25.0968 C   0  0  0  0  0  0  0  0  0  0  0  0
    9.7900    6.3955   25.4908 C   0  0  0  0  0  0  0  0  0  0  0  0
    9.8881    5.7350   26.2351 O   0  0  0  0  0  0  0  0  0  0  0  0
   10.5933    6.8771   25.1405 N   0  0  0  0  0  0  0  0  0  0  0  0
   10.4967    7.5274   24.4077 H   0  0  0  0  0  0  0  0  0  0  0  0
   11.4948    6.6980   25.5345 C   0  0  0  0  0  0  0  0  0  0  0  0
   11.8975    7.3490   26.1780 C   0  0  0  0  0  0  0  0  0  0  0  0
   12.0376    7.0867   27.1327 O   0  0  0  0  0  0  0  0  0  0  0  0
   12.1600    8.2624   25.8667 N   0  0  0  0  0  0  0  0  0  0  0  0
   12.0607    8.6177   24.9373 C   0  0  0  0  0  0  0  0  0  0  0  0
   12.4072    9.5557   24.9265 C   0  0  0  0  0  0  0  0  0  0  0  0
   12.7206    9.7801   25.8492 C   0  0  0  0  0  0  0  0  0  0  0  0
   12.5678    8.9808   26.4303 C   0  0  0  0  0  0  0  0  0  0  0  0
   12.7847    8.9119   27.4040 C   0  0  0  0  0  0  0  0  0  0  0  0
   12.0936    9.1453   28.0880 O   0  0  0  0  0  0  0  0  0  0  0  0
   13.6929    8.6096   27.6938 O   0  0  0  0  0  0  0  0  0  0  0  0
   11.2427    9.4286   27.8165 H   0  0  0  0  0  0  0  0  0  0  0  0
   11.9937    5.8680   25.2850 C   0  0  0  0  0  0  0  0  0  0  0  0
   12.2342    5.6973   24.3295 S   0  0  0  0  0  0  0  0  0  0  0  0
   11.8829    6.5940   23.3692 H   0  0  0  0  0  0  0  0  0  0  0  0
    8.5054    7.4979   25.1237 C   0  0  0  0  0  0  0  0  0  0  0  0
    7.7284    7.6996   25.7199 C   0  0  0  0  0  0  0  0  0  0  0  0
    6.8372    8.0462   25.4271 C   0  0  0  0  0  0  0  0  0  0  0  0
    6.2641    8.1510   26.2398 N   0  0  0  0  0  0  0  0  0  0  0  0
    6.8011    7.8692   27.0351 C   0  0  0  0  0  0  0  0  0  0  0  0
    7.7061    7.5902   26.7136 N   0  0  0  0  0  0  0  0  0  0  0  0
    8.4452    7.2650   27.2768 H   0  0  0  0  0  0  0  0  0  0  0  0
    6.9134    4.9252   23.3188 C   0  0  0  0  0  0  0  0  0  0  0  0
    6.3729    5.2698   22.5513 C   0  0  0  0  0  0  0  0  0  0  0  0
    5.3953    5.0665   22.4970 C   0  0  0  0  0  0  0  0  0  0  0  0
    5.0877    4.1279   22.3401 O   0  0  0  0  0  0  0  0  0  0  0  0
    4.7253    5.8017   22.5996 N   0  0  0  0  0  0  0  0  0  0  0  0
    5.0282    6.7257   22.7541 H   0  0  0  0  0  0  0  0  0  0  0  0
    3.7628    5.6016   22.5462 H   0  0  0  0  0  0  0  0  0  0  0  0
    9.9846    2.7366   22.4582 C   0  0  0  0  0  0  0  0  0  0  0  0
   10.7733    2.5097   23.0297 C   0  0  0  0  0  0  0  0  0  0  0  0
   11.6093    2.1559   22.6104 C   0  0  0  0  0  0  0  0  0  0  0  0
   12.4467    2.0799   23.1517 C   0  0  0  0  0  0  0  0  0  0  0  0
   12.9879    1.2396   23.1203 N   0  0  0  0  0  0  0  0  0  0  0  0
   12.6857    0.4599   22.5361 H   0  0  0  0  0  0  0  0  0  0  0  0
   13.8420    1.1621   23.6724 H   0  0  0  0  0  0  0  0  0  0  0  0
    8.9469   -0.7805   22.0186 C   0  0  0  0  0  0  0  0  0  0  0  0
    9.5145   -0.5430   21.2302 O   0  0  0  0  0  0  0  0  0  0  0  0
    8.1279   -0.2450   22.2245 N   0  0  0  0  0  0  0  0  0  0  0  0
    7.5692   -0.4788   23.0006 H   0  0  0  0  0  0  0  0  0  0  0  0
    9.1984   -1.5536   22.6010 C   0  0  0  0  0  0  0  0  0  0  0  0
    8.0183   -2.4309   23.5161 C   0  0  0  0  0  0  0  0  0  0  0  0
    7.8128   -2.9914   22.7139 O   0  0  0  0  0  0  0  0  0  0  0  0
    8.7111   -1.7120   23.4597 N   0  0  0  0  0  0  0  0  0  0  0  0
    8.9134   -1.1602   24.2495 H   0  0  0  0  0  0  0  0  0  0  0  0
    7.5309   -2.5893   24.3748 C   0  0  0  0  0  0  0  0  0  0  0  0
    6.8104   -1.4563   25.4689 C   0  0  0  0  0  0  0  0  0  0  0  0
    5.9152   -1.6292   25.0584 O   0  0  0  0  0  0  0  0  0  0  0  0
    7.6183   -1.9364   25.1271 N   0  0  0  0  0  0  0  0  0  0  0  0
    8.4997   -1.7662   25.5313 H   0  0  0  0  0  0  0  0  0  0  0  0
    6.8978   -0.8033   26.2212 C   0  0  0  0  0  0  0  0  0  0  0  0
    7.2606   -1.1028   27.1037 C   0  0  0  0  0  0  0  0  0  0  0  0
    6.0175    0.5897   26.7544 C   0  0  0  0  0  0  0  0  0  0  0  0
    5.6881    0.0779   27.5478 O   0  0  0  0  0  0  0  0  0  0  0  0
    6.6224    0.1491   26.0911 N   0  0  0  0  0  0  0  0  0  0  0  0
    6.9467    0.6530   25.3100 H   0  0  0  0  0  0  0  0  0  0  0  0
    5.7421    1.5423   26.6244 C   0  0  0  0  0  0  0  0  0  0  0  0
    4.3793    1.9208   25.6246 C   0  0  0  0  0  0  0  0  0  0  0  0
    4.9530    1.8348   24.8101 O   0  0  0  0  0  0  0  0  0  0  0  0
    4.7739    1.7746   26.5318 N   0  0  0  0  0  0  0  0  0  0  0  0
    4.2091    1.8593   27.3337 H   0  0  0  0  0  0  0  0  0  0  0  0
    3.4111    2.1531   25.5320 C   0  0  0  0  0  0  0  0  0  0  0  0
    2.0901    1.0900   25.8849 C   0  0  0  0  0  0  0  0  0  0  0  0
    2.0788    1.4175   26.8297 O   0  0  0  0  0  0  0  0  0  0  0  0
    2.7562    1.4578   25.2361 N   0  0  0  0  0  0  0  0  0  0  0  0
    2.7672    1.1354   24.3059 H   0  0  0  0  0  0  0  0  0  0  0  0
    1.7050   -0.5680   25.5637 N   0  0  0  0  0  0  0  0  0  0  0  0
    1.4351    0.3946   25.5889 C   0  0  0  0  0  0  0  0  0  0  0  0
    1.0371   -1.2772   25.2619 H   0  0  0  0  0  0  0  0  0  0  0  0
    2.6484   -0.8405   25.8400 H   0  0  0  0  0  0  0  0  0  0  0  0
    0.5103    0.6618   25.3182 C   0  0  0  0  0  0  0  0  0  0  0  0
    0.3554    1.0994   24.4325 O   0  0  0  0  0  0  0  0  0  0  0  0
   -0.2596    0.4913   25.9331 C   0  0  0  0  0  0  0  0  0  0  0  0
    1.1023    1.2648   23.8360 H   0  0  0  0  0  0  0  0  0  0  0  0
    3.0978    3.0807   25.7353 C   0  0  0  0  0  0  0  0  0  0  0  0
    2.9588    3.7356   24.9925 C   0  0  0  0  0  0  0  0  0  0  0  0
    2.5796    4.6401   25.1877 C   0  0  0  0  0  0  0  0  0  0  0  0
    3.1836    5.4356   25.2367 O   0  0  0  0  0  0  0  0  0  0  0  0
    1.5963    4.7491   25.3338 N   0  0  0  0  0  0  0  0  0  0  0  0
    1.0017    3.9660   25.2855 H   0  0  0  0  0  0  0  0  0  0  0  0
    1.2230    5.6396   25.5259 H   0  0  0  0  0  0  0  0  0  0  0  0
    6.4348    2.2625   26.5869 C   0  0  0  0  0  0  0  0  0  0  0  0
    6.5329    2.9020   27.3494 C   0  0  0  0  0  0  0  0  0  0  0  0
    6.9910    3.7799   27.2098 C   0  0  0  0  0  0  0  0  0  0  0  0
    6.4868    4.5507   26.8206 O   0  0  0  0  0  0  0  0  0  0  0  0
    7.9535    3.8868   27.4596 N   0  0  0  0  0  0  0  0  0  0  0  0
    8.4499    3.1279   27.8429 H   0  0  0  0  0  0  0  0  0  0  0  0
    8.4045    4.7511   27.3222 H   0  0  0  0  0  0  0  0  0  0  0  0
    6.9562   -3.4007   24.4812 C   0  0  0  0  0  0  0  0  0  0  0  0
    7.3415   -4.2394   24.8662 O   0  0  0  0  0  0  0  0  0  0  0  0
    6.7840   -5.0265   24.9693 H   0  0  0  0  0  0  0  0  0  0  0  0
    9.9373   -2.1682   22.3246 C   0  0  0  0  0  0  0  0  0  0  0  0
   10.8258   -2.1187   22.7807 C   0  0  0  0  0  0  0  0  0  0  0  0
   11.6819   -1.8079   22.3678 C   0  0  0  0  0  0  0  0  0  0  0  0
   12.3996   -1.8684   23.0617 N   0  0  0  0  0  0  0  0  0  0  0  0
   11.9868   -2.2167   23.9034 C   0  0  0  0  0  0  0  0  0  0  0  0
   11.0143   -2.3714   23.7296 N   0  0  0  0  0  0  0  0  0  0  0  0
   10.3576   -2.7125   24.3790 H   0  0  0  0  0  0  0  0  0  0  0  0
 95 96  1  0  0  0
 95 97  1  0  0  0
 95 98  1  0  0  0
 96 91  1  0  0  0
 96 99  1  0  0  0
 91 92  2  0  0  0
 91 93  1  0  0  0
 93 90  1  0  0  0
 93 94  1  0  0  0
 90103  1  0  0  0
 90 86  1  0  0  0
103104  1  0  0  0
104105  1  0  0  0
105106  2  0  0  0
105107  1  0  0  0
107108  1  0  0  0
107109  1  0  0  0
 86 87  2  0  0  0
 86 88  1  0  0  0
 88 85  1  0  0  0
 88 89  1  0  0  0
 85110  1  0  0  0
 85 81  1  0  0  0
110111  1  0  0  0
111112  1  0  0  0
112113  2  0  0  0
112114  1  0  0  0
114115  1  0  0  0
114116  1  0  0  0
 81 82  2  0  0  0
 81 83  1  0  0  0
 83 79  1  0  0  0
 83 84  1  0  0  0
 79 80  1  0  0  0
 79 75  1  0  0  0
 75 76  2  0  0  0
 75 77  1  0  0  0
 77 74  1  0  0  0
 77 78  1  0  0  0
 74117  1  0  0  0
 74 70  1  0  0  0
117118  1  0  0  0
118119  1  0  0  0
 70 71  2  0  0  0
 70 72  1  0  0  0
 72 69  1  0  0  0
 72 73  1  0  0  0
 69120  1  0  0  0
 69 65  1  0  0  0
120121  1  0  0  0
121125  1  0  0  0
121122  2  0  0  0
122123  1  0  0  0
123124  2  0  0  0
124125  1  0  0  0
125126  1  0  0  0
 65 66  2  0  0  0
 65 67  1  0  0  0
 67  1  1  0  0  0
 67 68  1  0  0  0
  1  2  1  0  0  0
  1 10  1  0  0  0
  2  8  2  0  0  0
  2  3  1  0  0  0
  3  4  2  0  0  0
  4  5  1  0  0  0
  5  6  1  0  0  0
  5  7  2  0  0  0
  6  9  1  0  0  0
  7  8  1  0  0  0
 10 11  2  0  0  0
 10 12  1  0  0  0
 12 14  1  0  0  0
 12 13  1  0  0  0
 14 58  1  0  0  0
 14 15  1  0  0  0
 58 59  1  0  0  0
 59 60  1  0  0  0
 60 61  1  0  0  0
 61 62  1  0  0  0
 62 63  1  0  0  0
 62 64  1  0  0  0
 15 16  2  0  0  0
 15 17  1  0  0  0
 17 19  1  0  0  0
 17 18  1  0  0  0
 19 51  1  0  0  0
 19 20  1  0  0  0
 51 52  1  0  0  0
 52 53  1  0  0  0
 53 54  2  0  0  0
 53 55  1  0  0  0
 55 56  1  0  0  0
 55 57  1  0  0  0
 20 21  2  0  0  0
 20 22  1  0  0  0
 22 24  1  0  0  0
 22 23  1  0  0  0
 24 44  1  0  0  0
 24 25  1  0  0  0
 44 45  1  0  0  0
 45 49  1  0  0  0
 45 46  2  0  0  0
 46 47  1  0  0  0
 47 48  2  0  0  0
 48 49  1  0  0  0
 49 50  1  0  0  0
 25 26  2  0  0  0
 25 27  1  0  0  0
 27 29  1  0  0  0
 27 28  1  0  0  0
 29 41  1  0  0  0
 29 30  1  0  0  0
 41 42  1  0  0  0
 42 43  1  0  0  0
 30 31  2  0  0  0
 30 32  1  0  0  0
 32 36  1  0  0  0
 32 33  1  0  0  0
 33 34  1  0  0  0
 34 35  1  0  0  0
 35 36  1  0  0  0
 36 37  1  0  0  0
 37 38  1  0  0  0
 37 39  2  0  0  0
 38 40  1  0  0  0
 99100  1  0  0  0
 99101  1  0  0  0
100102  1  0  0  0
M  END
> <minimizedAffinity>
-6.32550

$$$$



126129  0  0  0  0  0  0  0  0999 V2000
    6.8789    0.4495   21.3060 C   0  0  0  0  0  0  0  0  0  0  0  0
    6.5906    0.2107   20.3788 C   0  0  0  0  0  0  0  0  0  0  0  0
    5.6488    0.3805   20.0887 C   0  0  0  0  0  0  0  0  0  0  0  0
    5.3605    0.1417   19.1613 C   0  0  0  0  0  0  0  0  0  0  0  0
    6.0139   -0.2669   18.5242 C   0  0  0  0  0  0  0  0  0  0  0  0
    5.7256   -0.5057   17.5969 O   0  0  0  0  0  0  0  0  0  0  0  0
    6.9558   -0.4367   18.8142 C   0  0  0  0  0  0  0  0  0  0  0  0
    7.2441   -0.1979   19.7415 C   0  0  0  0  0  0  0  0  0  0  0  0
    4.8431   -0.3466   17.3251 H   0  0  0  0  0  0  0  0  0  0  0  0
    7.1982    1.3754   21.5075 C   0  0  0  0  0  0  0  0  0  0  0  0
    7.8002    1.8479   20.8638 O   0  0  0  0  0  0  0  0  0  0  0  0
    6.9154    1.8290   22.3526 N   0  0  0  0  0  0  0  0  0  0  0  0
    6.3226    1.3639   22.9863 H   0  0  0  0  0  0  0  0  0  0  0  0
    7.2346    2.7551   22.5542 C   0  0  0  0  0  0  0  0  0  0  0  0
    8.0629    2.8912   23.0976 C   0  0  0  0  0  0  0  0  0  0  0  0
    8.0613    2.6758   24.0741 O   0  0  0  0  0  0  0  0  0  0  0  0
    8.8929    3.2428   22.6645 N   0  0  0  0  0  0  0  0  0  0  0  0
    8.8945    3.4548   21.7031 H   0  0  0  0  0  0  0  0  0  0  0  0
    9.7212    3.3789   23.2079 C   0  0  0  0  0  0  0  0  0  0  0  0
    9.9582    4.2927   23.5377 C   0  0  0  0  0  0  0  0  0  0  0  0
    9.9031    4.5017   24.5141 O   0  0  0  0  0  0  0  0  0  0  0  0
   10.2504    4.9975   22.8912 N   0  0  0  0  0  0  0  0  0  0  0  0
   10.3046    4.7917   21.9300 H   0  0  0  0  0  0  0  0  0  0  0  0
   10.4873    5.9113   23.2211 C   0  0  0  0  0  0  0  0  0  0  0  0
    9.8251    6.6569   23.1470 C   0  0  0  0  0  0  0  0  0  0  0  0
    9.5863    7.0261   22.2489 O   0  0  0  0  0  0  0  0  0  0  0  0
    9.4017    7.0333   23.9710 N   0  0  0  0  0  0  0  0  0  0  0  0
    9.6368    6.6698   24.8552 H   0  0  0  0  0  0  0  0  0  0  0  0
    8.7394    7.7789   23.8970 C   0  0  0  0  0  0  0  0  0  0  0  0
    8.9777    8.6935   24.2236 C   0  0  0  0  0  0  0  0  0  0  0  0
    8.9921    9.4640   23.5863 O   0  0  0  0  0  0  0  0  0  0  0  0
    9.2015    8.8377   25.1876 N   0  0  0  0  0  0  0  0  0  0  0  0
    9.2149    8.1352   25.8992 C   0  0  0  0  0  0  0  0  0  0  0  0
    9.4729    8.5730   26.7605 C   0  0  0  0  0  0  0  0  0  0  0  0
    9.6187    9.5459   26.5811 C   0  0  0  0  0  0  0  0  0  0  0  0
    9.4510    9.7095   25.6090 C   0  0  0  0  0  0  0  0  0  0  0  0
    9.5206   10.5902   25.1406 C   0  0  0  0  0  0  0  0  0  0  0  0
   10.3987   10.8903   24.7679 O   0  0  0  0  0  0  0  0  0  0  0  0
    8.7121   11.1709   25.0448 O   0  0  0  0  0  0  0  0  0  0  0  0
   11.1563   10.3462   24.8576 H   0  0  0  0  0  0  0  0  0  0  0  0
    7.8389    7.6099   23.4962 C   0  0  0  0  0  0  0  0  0  0  0  0
    7.1368    7.1348   24.0266 S   0  0  0  0  0  0  0  0  0  0  0  0
    7.4066    6.7183   25.2928 H   0  0  0  0  0  0  0  0  0  0  0  0
   11.3865    6.0795   23.6250 C   0  0  0  0  0  0  0  0  0  0  0  0
   12.2149    5.8887   23.0983 C   0  0  0  0  0  0  0  0  0  0  0  0
   12.5155    6.3761   22.2784 C   0  0  0  0  0  0  0  0  0  0  0  0
   13.3744    5.9657   21.9724 N   0  0  0  0  0  0  0  0  0  0  0  0
   13.6048    5.2246   22.6030 C   0  0  0  0  0  0  0  0  0  0  0  0
   12.8881    5.1770   23.2989 N   0  0  0  0  0  0  0  0  0  0  0  0
   12.8518    4.5411   24.0496 H   0  0  0  0  0  0  0  0  0  0  0  0
   10.3126    2.6013   23.4214 C   0  0  0  0  0  0  0  0  0  0  0  0
   10.8840    2.1967   22.7074 C   0  0  0  0  0  0  0  0  0  0  0  0
   11.5858    1.5264   22.9485 C   0  0  0  0  0  0  0  0  0  0  0  0
   12.5180    1.8284   23.1483 O   0  0  0  0  0  0  0  0  0  0  0  0
   11.3555    0.5542   22.9899 N   0  0  0  0  0  0  0  0  0  0  0  0
   10.4377    0.2570   22.7932 H   0  0  0  0  0  0  0  0  0  0  0  0
   12.0464   -0.1057   23.2273 H   0  0  0  0  0  0  0  0  0  0  0  0
    6.7255    3.5449   22.2122 C   0  0  0  0  0  0  0  0  0  0  0  0
    5.8193    3.7531   22.5804 C   0  0  0  0  0  0  0  0  0  0  0  0
    5.2232    4.4003   22.1052 C   0  0  0  0  0  0  0  0  0  0  0  0
    4.3402    4.6511   22.5020 C   0  0  0  0  0  0  0  0  0  0  0  0
    3.5013    4.2227   22.1662 N   0  0  0  0  0  0  0  0  0  0  0  0
    3.5463    3.5299   21.4189 H   0  0  0  0  0  0  0  0  0  0  0  0
    2.6007    4.4784   22.5710 H   0  0  0  0  0  0  0  0  0  0  0  0
    7.6879   -0.6959   22.3227 C   0  0  0  0  0  0  0  0  0  0  0  0
    8.5589   -0.4669   21.8878 O   0  0  0  0  0  0  0  0  0  0  0  0
    6.8480   -0.2378   22.0318 N   0  0  0  0  0  0  0  0  0  0  0  0
    5.9907   -0.4632   22.4600 H   0  0  0  0  0  0  0  0  0  0  0  0
    7.6570   -1.3831   23.0485 C   0  0  0  0  0  0  0  0  0  0  0  0
    7.2538   -0.7216   24.5976 C   0  0  0  0  0  0  0  0  0  0  0  0
    8.1413   -0.2623   24.6325 O   0  0  0  0  0  0  0  0  0  0  0  0
    7.0116   -1.2821   23.8056 N   0  0  0  0  0  0  0  0  0  0  0  0
    6.1378   -1.7343   23.7712 H   0  0  0  0  0  0  0  0  0  0  0  0
    6.6084   -0.6206   25.3547 C   0  0  0  0  0  0  0  0  0  0  0  0
    6.6580   -1.3993   26.9010 C   0  0  0  0  0  0  0  0  0  0  0  0
    6.0515   -2.1170   26.5590 O   0  0  0  0  0  0  0  0  0  0  0  0
    6.9365   -0.6511   26.2989 N   0  0  0  0  0  0  0  0  0  0  0  0
    7.5336    0.0555   26.6355 H   0  0  0  0  0  0  0  0  0  0  0  0
    6.9861   -1.4298   27.8452 C   0  0  0  0  0  0  0  0  0  0  0  0
    7.0502   -2.3053   28.3242 C   0  0  0  0  0  0  0  0  0  0  0  0
    6.7236   -0.2615   29.0966 C   0  0  0  0  0  0  0  0  0  0  0  0
    5.9331   -0.7830   29.4177 O   0  0  0  0  0  0  0  0  0  0  0  0
    7.2501   -0.5849   28.3103 N   0  0  0  0  0  0  0  0  0  0  0  0
    8.0284   -0.0714   27.9942 H   0  0  0  0  0  0  0  0  0  0  0  0
    6.9876    0.5835   29.5618 C   0  0  0  0  0  0  0  0  0  0  0  0
    6.4268    2.0848   28.9048 C   0  0  0  0  0  0  0  0  0  0  0  0
    5.5260    1.9249   29.3084 O   0  0  0  0  0  0  0  0  0  0  0  0
    7.1576    1.4141   29.0315 N   0  0  0  0  0  0  0  0  0  0  0  0
    8.0445    1.5714   28.6341 H   0  0  0  0  0  0  0  0  0  0  0  0
    6.5968    2.9153   28.3744 C   0  0  0  0  0  0  0  0  0  0  0  0
    7.6403    4.1101   29.0700 C   0  0  0  0  0  0  0  0  0  0  0  0
    6.8992    4.4066   29.6724 O   0  0  0  0  0  0  0  0  0  0  0  0
    7.4891    3.3644   28.4210 N   0  0  0  0  0  0  0  0  0  0  0  0
    8.2186    3.0725   27.8279 H   0  0  0  0  0  0  0  0  0  0  0  0
    8.8501    5.1208   28.3526 N   0  0  0  0  0  0  0  0  0  0  0  0
    8.5326    4.5592   29.1166 C   0  0  0  0  0  0  0  0  0  0  0  0
    9.7602    5.5789   28.4000 H   0  0  0  0  0  0  0  0  0  0  0  0
    8.2638    5.2356   27.5258 H   0  0  0  0  0  0  0  0  0  0  0  0
    9.1074    4.4466   29.9271 C   0  0  0  0  0  0  0  0  0  0  0  0
    9.4043    3.5335   30.2066 O   0  0  0  0  0  0  0  0  0  0  0  0
    9.3852    5.2471   30.4581 C   0  0  0  0  0  0  0  0  0  0  0  0
    9.1348    2.7570   29.6915 H   0  0  0  0  0  0  0  0  0  0  0  0
    5.8746    3.2968   27.7975 C   0  0  0  0  0  0  0  0  0  0  0  0
    5.9433    3.2320   26.8020 C   0  0  0  0  0  0  0  0  0  0  0  0
    5.2206    3.6126   26.2251 C   0  0  0  0  0  0  0  0  0  0  0  0
    4.5304    3.0096   25.8251 O   0  0  0  0  0  0  0  0  0  0  0  0
    5.1881    4.5963   26.0481 N   0  0  0  0  0  0  0  0  0  0  0  0
    5.8675    5.1899   26.4420 H   0  0  0  0  0  0  0  0  0  0  0  0
    4.4766    4.9710   25.4802 H   0  0  0  0  0  0  0  0  0  0  0  0
    7.0816    0.5979   30.5572 C   0  0  0  0  0  0  0  0  0  0  0  0
    7.9904    0.5785   30.9740 C   0  0  0  0  0  0  0  0  0  0  0  0
    8.0903    0.7007   31.9614 C   0  0  0  0  0  0  0  0  0  0  0  0
    7.7936   -0.0208   32.5870 O   0  0  0  0  0  0  0  0  0  0  0  0
    8.4870    1.5444   32.3233 N   0  0  0  0  0  0  0  0  0  0  0  0
    8.7791    2.2547   31.7074 H   0  0  0  0  0  0  0  0  0  0  0  0
    8.5853    1.6646   33.2955 H   0  0  0  0  0  0  0  0  0  0  0  0
    5.6349   -0.4890   25.1677 C   0  0  0  0  0  0  0  0  0  0  0  0
    5.3019    0.3999   24.8530 O   0  0  0  0  0  0  0  0  0  0  0  0
    4.3576    0.5275   24.6716 H   0  0  0  0  0  0  0  0  0  0  0  0
    8.2716   -2.1715   23.0171 C   0  0  0  0  0  0  0  0  0  0  0  0
    7.8970   -3.0941   22.9259 C   0  0  0  0  0  0  0  0  0  0  0  0
    7.7931   -3.7619   23.6630 C   0  0  0  0  0  0  0  0  0  0  0  0
    7.3924   -4.5916   23.2742 N   0  0  0  0  0  0  0  0  0  0  0  0
    7.2487   -4.4365   22.2967 C   0  0  0  0  0  0  0  0  0  0  0  0
    7.5606   -3.5111   22.0815 N   0  0  0  0  0  0  0  0  0  0  0  0
    7.5400   -3.0852   21.1941 H   0  0  0  0  0  0  0  0  0  0  0  0
 95 96  1  0  0  0
 95 97  1  0  0  0
 95 98  1  0  0  0
 96 91  1  0  0  0
 96 99  1  0  0  0
 91 92  2  0  0  0
 91 93  1  0  0  0
 93 90  1  0  0  0
 93 94  1  0  0  0
 90103  1  0  0  0
 90 86  1  0  0  0
103104  1  0  0  0
104105  1  0  0  0
105106  2  0  0  0
105107  1  0  0  0
107108  1  0  0  0
107109  1  0  0  0
 86 87  2  0  0  0
 86 88  1  0  0  0
 88 85  1  0  0  0
 88 89  1  0  0  0
 85110  1  0  0  0
 85 81  1  0  0  0
110111  1  0  0  0
111112  1  0  0  0
112113  2  0  0  0
112114  1  0  0  0
114115  1  0  0  0
114116  1  0  0  0
 81 82  2  0  0  0
 81 83  1  0  0  0
 83 79  1  0  0  0
 83 84  1  0  0  0
 79 80  1  0  0  0
 79 75  1  0  0  0
 75 76  2  0  0  0
 75 77  1  0  0  0
 77 74  1  0  0  0
 77 78  1  0  0  0
 74117  1  0  0  0
 74 70  1  0  0  0
117118  1  0  0  0
118119  1  0  0  0
 70 71  2  0  0  0
 70 72  1  0  0  0
 72 69  1  0  0  0
 72 73  1  0  0  0
 69120  1  0  0  0
 69 65  1  0  0  0
120121  1  0  0  0
121125  1  0  0  0
121122  2  0  0  0
122123  1  0  0  0
123124  2  0  0  0
124125  1  0  0  0
125126  1  0  0  0
 65 66  2  0  0  0
 65 67  1  0  0  0
 67  1  1  0  0  0
 67 68  1  0  0  0
  1  2  1  0  0  0
  1 10  1  0  0  0
  2  8  2  0  0  0
  2  3  1  0  0  0
  3  4  2  0  0  0
  4  5  1  0  0  0
  5  6  1  0  0  0
  5  7  2  0  0  0
  6  9  1  0  0  0
  7  8  1  0  0  0
 10 11  2  0  0  0
 10 12  1  0  0  0
 12 14  1  0  0  0
 12 13  1  0  0  0
 14 58  1  0  0  0
 14 15  1  0  0  0
 58 59  1  0  0  0
 59 60  1  0  0  0
 60 61  1  0  0  0
 61 62  1  0  0  0
 62 63  1  0  0  0
 62 64  1  0  0  0
 15 16  2  0  0  0
 15 17  1  0  0  0
 17 19  1  0  0  0
 17 18  1  0  0  0
 19 51  1  0  0  0
 19 20  1  0  0  0
 51 52  1  0  0  0
 52 53  1  0  0  0
 53 54  2  0  0  0
 53 55  1  0  0  0
 55 56  1  0  0  0
 55 57  1  0  0  0
 20 21  2  0  0  0
 20 22  1  0  0  0
 22 24  1  0  0  0
 22 23  1  0  0  0
 24 44  1  0  0  0
 24 25  1  0  0  0
 44 45  1  0  0  0
 45 49  1  0  0  0
 45 46  2  0  0  0
 46 47  1  0  0  0
 47 48  2  0  0  0
 48 49  1  0  0  0
 49 50  1  0  0  0
 25 26  2  0  0  0
 25 27  1  0  0  0
 27 29  1  0  0  0
 27 28  1  0  0  0
 29 41  1  0  0  0
 29 30  1  0  0  0
 41 42  1  0  0  0
 42 43  1  0  0  0
 30 31  2  0  0  0
 30 32  1  0  0  0
 32 36  1  0  0  0
 32 33  1  0  0  0
 33 34  1  0  0  0
 34 35  1  0  0  0
 35 36  1  0  0  0
 36 37  1  0  0  0
 37 38  1  0  0  0
 37 39  2  0  0  0
 38 40  1  0  0  0
 99100  1  0  0  0
 99101  1  0  0  0
100102  1  0  0  0
M  END
> <minimizedAffinity>
-6.30263

$$$$



126129  0  0  0  0  0  0  0  0999 V2000
    7.5508    0.9783   21.8252 C   0  0  0  0  0  0  0  0  0  0  0  0
    7.0256    0.5488   21.0906 C   0  0  0  0  0  0  0  0  0  0  0  0
    7.0160    0.9574   20.1779 C   0  0  0  0  0  0  0  0  0  0  0  0
    6.4908    0.5279   19.4433 C   0  0  0  0  0  0  0  0  0  0  0  0
    5.9752   -0.3102   19.6213 C   0  0  0  0  0  0  0  0  0  0  0  0
    5.4500   -0.7396   18.8866 O   0  0  0  0  0  0  0  0  0  0  0  0
    5.9847   -0.7188   20.5339 C   0  0  0  0  0  0  0  0  0  0  0  0
    6.5099   -0.2894   21.2686 C   0  0  0  0  0  0  0  0  0  0  0  0
    5.4410   -0.3568   18.0315 H   0  0  0  0  0  0  0  0  0  0  0  0
    7.2544    1.8543   22.2055 C   0  0  0  0  0  0  0  0  0  0  0  0
    6.7032    2.4788   21.6521 O   0  0  0  0  0  0  0  0  0  0  0  0
    7.5093    2.1060   23.1391 N   0  0  0  0  0  0  0  0  0  0  0  0
    8.0520    1.4913   23.6839 H   0  0  0  0  0  0  0  0  0  0  0  0
    7.2130    2.9821   23.5195 C   0  0  0  0  0  0  0  0  0  0  0  0
    6.5909    3.0027   24.3022 C   0  0  0  0  0  0  0  0  0  0  0  0
    6.8046    3.5724   25.0958 O   0  0  0  0  0  0  0  0  0  0  0  0
    5.7553    2.4536   24.2913 N   0  0  0  0  0  0  0  0  0  0  0  0
    5.5450    1.8928   23.5099 H   0  0  0  0  0  0  0  0  0  0  0  0
    5.1332    2.4741   25.0740 C   0  0  0  0  0  0  0  0  0  0  0  0
    4.3400    3.0830   25.0663 C   0  0  0  0  0  0  0  0  0  0  0  0
    4.2512    3.7972   25.7606 O   0  0  0  0  0  0  0  0  0  0  0  0
    3.6355    2.9776   24.3644 N   0  0  0  0  0  0  0  0  0  0  0  0
    3.7229    2.2744   23.6810 H   0  0  0  0  0  0  0  0  0  0  0  0
    2.8422    3.5864   24.3568 C   0  0  0  0  0  0  0  0  0  0  0  0
    2.8226    4.3742   23.7413 C   0  0  0  0  0  0  0  0  0  0  0  0
    2.2575    5.1686   23.9639 O   0  0  0  0  0  0  0  0  0  0  0  0
    3.3679    4.3676   22.9031 N   0  0  0  0  0  0  0  0  0  0  0  0
    3.9242    3.5855   22.6839 H   0  0  0  0  0  0  0  0  0  0  0  0
    3.3482    5.1554   22.2875 C   0  0  0  0  0  0  0  0  0  0  0  0
    2.8515    5.1009   21.4214 C   0  0  0  0  0  0  0  0  0  0  0  0
    2.0826    5.7159   21.2464 O   0  0  0  0  0  0  0  0  0  0  0  0
    3.1236    4.4314   20.7302 N   0  0  0  0  0  0  0  0  0  0  0  0
    3.8747    3.7761   20.8103 C   0  0  0  0  0  0  0  0  0  0  0  0
    3.9076    3.2394   19.9671 C   0  0  0  0  0  0  0  0  0  0  0  0
    3.1769    3.5630   19.3660 C   0  0  0  0  0  0  0  0  0  0  0  0
    2.6923    4.2997   19.8376 C   0  0  0  0  0  0  0  0  0  0  0  0
    1.9133    4.8143   19.4795 C   0  0  0  0  0  0  0  0  0  0  0  0
    0.9830    4.4753   19.6198 O   0  0  0  0  0  0  0  0  0  0  0  0
    2.0646    5.6680   18.9812 O   0  0  0  0  0  0  0  0  0  0  0  0
    0.8414    3.6754   20.0867 H   0  0  0  0  0  0  0  0  0  0  0  0
    3.8254    5.9979   22.5381 C   0  0  0  0  0  0  0  0  0  0  0  0
    4.8249    6.0266   22.5338 S   0  0  0  0  0  0  0  0  0  0  0  0
    5.5355    4.9201   22.1870 H   0  0  0  0  0  0  0  0  0  0  0  0
    2.0687    3.4074   24.9647 C   0  0  0  0  0  0  0  0  0  0  0  0
    1.3944    2.7094   24.7237 C   0  0  0  0  0  0  0  0  0  0  0  0
    1.4015    1.7561   25.0258 C   0  0  0  0  0  0  0  0  0  0  0  0
    0.6061    1.2996   24.6270 N   0  0  0  0  0  0  0  0  0  0  0  0
    0.1074    1.9707   24.0784 C   0  0  0  0  0  0  0  0  0  0  0  0
    0.5947    2.8420   24.1382 N   0  0  0  0  0  0  0  0  0  0  0  0
    0.3329    3.6828   23.6979 H   0  0  0  0  0  0  0  0  0  0  0  0
    5.3045    1.8859   25.8643 C   0  0  0  0  0  0  0  0  0  0  0  0
    5.1340    0.9025   25.8019 C   0  0  0  0  0  0  0  0  0  0  0  0
    5.2740    0.3190   26.6019 C   0  0  0  0  0  0  0  0  0  0  0  0
    6.1981    0.1614   26.9502 O   0  0  0  0  0  0  0  0  0  0  0  0
    4.4900   -0.1068   27.0535 N   0  0  0  0  0  0  0  0  0  0  0  0
    3.5803    0.0484   26.7105 H   0  0  0  0  0  0  0  0  0  0  0  0
    4.6278   -0.6813   27.8411 H   0  0  0  0  0  0  0  0  0  0  0  0
    7.5387    3.8377   23.1170 C   0  0  0  0  0  0  0  0  0  0  0  0
    8.4581    4.1706   23.3266 C   0  0  0  0  0  0  0  0  0  0  0  0
    8.8365    4.9458   22.8207 C   0  0  0  0  0  0  0  0  0  0  0  0
    9.7815    5.2325   22.9784 C   0  0  0  0  0  0  0  0  0  0  0  0
   10.1815    5.9628   22.4246 N   0  0  0  0  0  0  0  0  0  0  0  0
    9.6255    6.4153   21.6989 H   0  0  0  0  0  0  0  0  0  0  0  0
   11.1453    6.2551   22.5854 H   0  0  0  0  0  0  0  0  0  0  0  0
    9.2644    0.7313   21.7742 C   0  0  0  0  0  0  0  0  0  0  0  0
    9.3349    1.3776   21.0143 O   0  0  0  0  0  0  0  0  0  0  0  0
    8.3723    0.5316   22.1796 N   0  0  0  0  0  0  0  0  0  0  0  0
    8.3029   -0.1046   22.9276 H   0  0  0  0  0  0  0  0  0  0  0  0
   10.0859    0.2847   22.1286 C   0  0  0  0  0  0  0  0  0  0  0  0
    9.9933   -1.4014   22.5139 C   0  0  0  0  0  0  0  0  0  0  0  0
   10.0627   -1.6273   21.5423 O   0  0  0  0  0  0  0  0  0  0  0  0
   10.0049   -0.4454   22.8071 N   0  0  0  0  0  0  0  0  0  0  0  0
    9.9366   -0.2230   23.7637 H   0  0  0  0  0  0  0  0  0  0  0  0
    9.9123   -2.1315   23.1924 C   0  0  0  0  0  0  0  0  0  0  0  0
    8.3624   -2.7081   23.7073 C   0  0  0  0  0  0  0  0  0  0  0  0
    8.2978   -1.9525   24.3590 O   0  0  0  0  0  0  0  0  0  0  0  0
    9.1696   -2.7976   23.1240 N   0  0  0  0  0  0  0  0  0  0  0  0
    9.2333   -3.5415   22.4823 H   0  0  0  0  0  0  0  0  0  0  0  0
    7.6197   -3.3742   23.6388 C   0  0  0  0  0  0  0  0  0  0  0  0
    7.5367   -3.9486   22.8244 C   0  0  0  0  0  0  0  0  0  0  0  0
    6.9164   -4.3144   24.9121 C   0  0  0  0  0  0  0  0  0  0  0  0
    7.5325   -5.0712   24.6936 O   0  0  0  0  0  0  0  0  0  0  0  0
    6.9599   -3.4660   24.3846 N   0  0  0  0  0  0  0  0  0  0  0  0
    6.3533   -2.7210   24.5997 H   0  0  0  0  0  0  0  0  0  0  0  0
    6.2566   -4.4062   25.6580 C   0  0  0  0  0  0  0  0  0  0  0  0
    5.0474   -5.6456   25.6982 C   0  0  0  0  0  0  0  0  0  0  0  0
    5.7025   -6.2709   26.1223 O   0  0  0  0  0  0  0  0  0  0  0  0
    5.3245   -4.7133   25.4661 N   0  0  0  0  0  0  0  0  0  0  0  0
    4.6796   -4.0976   25.0486 H   0  0  0  0  0  0  0  0  0  0  0  0
    4.1153   -5.9527   25.5063 C   0  0  0  0  0  0  0  0  0  0  0  0
    2.8545   -5.8157   26.6859 C   0  0  0  0  0  0  0  0  0  0  0  0
    2.6990   -4.8673   26.4097 O   0  0  0  0  0  0  0  0  0  0  0  0
    3.5626   -6.3584   26.2343 N   0  0  0  0  0  0  0  0  0  0  0  0
    3.7158   -7.2921   26.5063 H   0  0  0  0  0  0  0  0  0  0  0  0
    2.5493   -6.0730   28.3714 N   0  0  0  0  0  0  0  0  0  0  0  0
    2.3018   -6.2215   27.4140 C   0  0  0  0  0  0  0  0  0  0  0  0
    1.9856   -6.4868   29.1140 H   0  0  0  0  0  0  0  0  0  0  0  0
    3.3654   -5.5076   28.6054 H   0  0  0  0  0  0  0  0  0  0  0  0
    1.5017   -6.7758   27.1845 C   0  0  0  0  0  0  0  0  0  0  0  0
    0.7876   -6.4020   26.5927 O   0  0  0  0  0  0  0  0  0  0  0  0
    1.4159   -7.7038   27.5469 C   0  0  0  0  0  0  0  0  0  0  0  0
    0.8709   -5.5018   26.2412 H   0  0  0  0  0  0  0  0  0  0  0  0
    3.7358   -5.8541   24.5864 C   0  0  0  0  0  0  0  0  0  0  0  0
    3.7630   -6.6242   23.9491 C   0  0  0  0  0  0  0  0  0  0  0  0
    3.4013   -6.5195   23.0226 C   0  0  0  0  0  0  0  0  0  0  0  0
    2.4371   -6.7095   22.8378 O   0  0  0  0  0  0  0  0  0  0  0  0
    4.0040   -6.2250   22.2809 N   0  0  0  0  0  0  0  0  0  0  0  0
    4.9533   -6.0380   22.4629 H   0  0  0  0  0  0  0  0  0  0  0  0
    3.6480   -6.1220   21.3689 H   0  0  0  0  0  0  0  0  0  0  0  0
    6.5290   -4.1909   26.5958 C   0  0  0  0  0  0  0  0  0  0  0  0
    6.2360   -3.3326   27.0170 C   0  0  0  0  0  0  0  0  0  0  0  0
    6.2353   -3.2389   28.0125 C   0  0  0  0  0  0  0  0  0  0  0  0
    5.6044   -3.7831   28.5655 O   0  0  0  0  0  0  0  0  0  0  0  0
    6.8656   -2.6010   28.4552 N   0  0  0  0  0  0  0  0  0  0  0  0
    7.4868   -2.0653   27.9108 H   0  0  0  0  0  0  0  0  0  0  0  0
    6.8649   -2.5088   29.4354 H   0  0  0  0  0  0  0  0  0  0  0  0
   10.5741   -2.1955   23.9394 C   0  0  0  0  0  0  0  0  0  0  0  0
   11.4614   -2.6302   23.7855 O   0  0  0  0  0  0  0  0  0  0  0  0
   12.1033   -2.6922   24.5102 H   0  0  0  0  0  0  0  0  0  0  0  0
   10.9885    0.5682   21.8044 C   0  0  0  0  0  0  0  0  0  0  0  0
   11.5837    1.1126   22.3953 C   0  0  0  0  0  0  0  0  0  0  0  0
   12.4430    0.8073   22.8056 C   0  0  0  0  0  0  0  0  0  0  0  0
   12.8146    1.5640   23.3437 N   0  0  0  0  0  0  0  0  0  0  0  0
   12.1849    2.3370   23.2658 C   0  0  0  0  0  0  0  0  0  0  0  0
   11.4242    2.0579   22.6797 N   0  0  0  0  0  0  0  0  0  0  0  0
   10.6535    2.6160   22.4270 H   0  0  0  0  0  0  0  0  0  0  0  0
 95 96  1  0  0  0
 95 97  1  0  0  0
 95 98  1  0  0  0
 96 91  1  0  0  0
 96 99  1  0  0  0
 91 92  2  0  0  0
 91 93  1  0  0  0
 93 90  1  0  0  0
 93 94  1  0  0  0
 90103  1  0  0  0
 90 86  1  0  0  0
103104  1  0  0  0
104105  1  0  0  0
105106  2  0  0  0
105107  1  0  0  0
107108  1  0  0  0
107109  1  0  0  0
 86 87  2  0  0  0
 86 88  1  0  0  0
 88 85  1  0  0  0
 88 89  1  0  0  0
 85110  1  0  0  0
 85 81  1  0  0  0
110111  1  0  0  0
111112  1  0  0  0
112113  2  0  0  0
112114  1  0  0  0
114115  1  0  0  0
114116  1  0  0  0
 81 82  2  0  0  0
 81 83  1  0  0  0
 83 79  1  0  0  0
 83 84  1  0  0  0
 79 80  1  0  0  0
 79 75  1  0  0  0
 75 76  2  0  0  0
 75 77  1  0  0  0
 77 74  1  0  0  0
 77 78  1  0  0  0
 74117  1  0  0  0
 74 70  1  0  0  0
117118  1  0  0  0
118119  1  0  0  0
 70 71  2  0  0  0
 70 72  1  0  0  0
 72 69  1  0  0  0
 72 73  1  0  0  0
 69120  1  0  0  0
 69 65  1  0  0  0
120121  1  0  0  0
121125  1  0  0  0
121122  2  0  0  0
122123  1  0  0  0
123124  2  0  0  0
124125  1  0  0  0
125126  1  0  0  0
 65 66  2  0  0  0
 65 67  1  0  0  0
 67  1  1  0  0  0
 67 68  1  0  0  0
  1  2  1  0  0  0
  1 10  1  0  0  0
  2  8  2  0  0  0
  2  3  1  0  0  0
  3  4  2  0  0  0
  4  5  1  0  0  0
  5  6  1  0  0  0
  5  7  2  0  0  0
  6  9  1  0  0  0
  7  8  1  0  0  0
 10 11  2  0  0  0
 10 12  1  0  0  0
 12 14  1  0  0  0
 12 13  1  0  0  0
 14 58  1  0  0  0
 14 15  1  0  0  0
 58 59  1  0  0  0
 59 60  1  0  0  0
 60 61  1  0  0  0
 61 62  1  0  0  0
 62 63  1  0  0  0
 62 64  1  0  0  0
 15 16  2  0  0  0
 15 17  1  0  0  0
 17 19  1  0  0  0
 17 18  1  0  0  0
 19 51  1  0  0  0
 19 20  1  0  0  0
 51 52  1  0  0  0
 52 53  1  0  0  0
 53 54  2  0  0  0
 53 55  1  0  0  0
 55 56  1  0  0  0
 55 57  1  0  0  0
 20 21  2  0  0  0
 20 22  1  0  0  0
 22 24  1  0  0  0
 22 23  1  0  0  0
 24 44  1  0  0  0
 24 25  1  0  0  0
 44 45  1  0  0  0
 45 49  1  0  0  0
 45 46  2  0  0  0
 46 47  1  0  0  0
 47 48  2  0  0  0
 48 49  1  0  0  0
 49 50  1  0  0  0
 25 26  2  0  0  0
 25 27  1  0  0  0
 27 29  1  0  0  0
 27 28  1  0  0  0
 29 41  1  0  0  0
 29 30  1  0  0  0
 41 42  1  0  0  0
 42 43  1  0  0  0
 30 31  2  0  0  0
 30 32  1  0  0  0
 32 36  1  0  0  0
 32 33  1  0  0  0
 33 34  1  0  0  0
 34 35  1  0  0  0
 35 36  1  0  0  0
 36 37  1  0  0  0
 37 38  1  0  0  0
 37 39  2  0  0  0
 38 40  1  0  0  0
 99100  1  0  0  0
 99101  1  0  0  0
100102  1  0  0  0
M  END
> <minimizedAffinity>
-6.29292

$$$$
