


126129  0  0  0  0  0  0  0  0999 V2000
    9.2250    1.8283   22.6129 C   0  0  0  0  0  0  0  0  0  0  0  0
    9.9164    2.4944   22.8927 C   0  0  0  0  0  0  0  0  0  0  0  0
   10.7381    2.6251   22.3379 C   0  0  0  0  0  0  0  0  0  0  0  0
   11.4296    3.2912   22.6177 C   0  0  0  0  0  0  0  0  0  0  0  0
   11.2993    3.8266   23.4522 C   0  0  0  0  0  0  0  0  0  0  0  0
   11.9908    4.4926   23.7319 O   0  0  0  0  0  0  0  0  0  0  0  0
   10.4777    3.6959   24.0069 C   0  0  0  0  0  0  0  0  0  0  0  0
    9.7862    3.0298   23.7272 C   0  0  0  0  0  0  0  0  0  0  0  0
   12.7607    4.6150   23.2121 H   0  0  0  0  0  0  0  0  0  0  0  0
    8.4814    2.1052   22.0043 C   0  0  0  0  0  0  0  0  0  0  0  0
    8.6332    2.8214   21.3232 O   0  0  0  0  0  0  0  0  0  0  0  0
    7.5861    1.6659   22.0769 N   0  0  0  0  0  0  0  0  0  0  0  0
    7.4366    0.9608   22.7476 H   0  0  0  0  0  0  0  0  0  0  0  0
    6.8424    1.9428   21.4683 C   0  0  0  0  0  0  0  0  0  0  0  0
    6.0192    2.3670   21.8456 C   0  0  0  0  0  0  0  0  0  0  0  0
    5.3373    1.8055   22.3143 O   0  0  0  0  0  0  0  0  0  0  0  0
    5.8778    3.3527   21.7541 N   0  0  0  0  0  0  0  0  0  0  0  0
    6.5491    3.9055   21.2926 H   0  0  0  0  0  0  0  0  0  0  0  0
    5.0546    3.7769   22.1313 C   0  0  0  0  0  0  0  0  0  0  0  0
    5.0744    4.1806   23.0460 C   0  0  0  0  0  0  0  0  0  0  0  0
    4.2203    4.4401   23.4966 O   0  0  0  0  0  0  0  0  0  0  0  0
    5.9485    4.3248   23.5100 N   0  0  0  0  0  0  0  0  0  0  0  0
    6.7894    4.0693   23.0664 H   0  0  0  0  0  0  0  0  0  0  0  0
    5.9683    4.7285   24.4247 C   0  0  0  0  0  0  0  0  0  0  0  0
    6.2536    5.6793   24.5455 C   0  0  0  0  0  0  0  0  0  0  0  0
    5.9742    6.1853   25.3614 O   0  0  0  0  0  0  0  0  0  0  0  0
    6.8184    6.1240   23.8503 N   0  0  0  0  0  0  0  0  0  0  0  0
    7.0935    5.6258   23.0470 H   0  0  0  0  0  0  0  0  0  0  0  0
    7.1037    7.0748   23.9710 C   0  0  0  0  0  0  0  0  0  0  0  0
    8.0665    7.2912   24.1325 C   0  0  0  0  0  0  0  0  0  0  0  0
    8.3567    7.6484   25.0203 O   0  0  0  0  0  0  0  0  0  0  0  0
    8.7393    7.1505   23.4061 N   0  0  0  0  0  0  0  0  0  0  0  0
    8.5494    6.7998   22.4890 C   0  0  0  0  0  0  0  0  0  0  0  0
    9.4128    6.7684   21.9854 C   0  0  0  0  0  0  0  0  0  0  0  0
   10.1362    7.0995   22.5913 C   0  0  0  0  0  0  0  0  0  0  0  0
    9.7199    7.3357   23.4692 C   0  0  0  0  0  0  0  0  0  0  0  0
   10.2000    7.6941   24.2698 C   0  0  0  0  0  0  0  0  0  0  0  0
   10.2745    8.6819   24.4075 O   0  0  0  0  0  0  0  0  0  0  0  0
   10.6057    7.0649   24.9328 O   0  0  0  0  0  0  0  0  0  0  0  0
    9.8944    9.2714   23.7863 H   0  0  0  0  0  0  0  0  0  0  0  0
    6.4261    7.8092   23.9304 C   0  0  0  0  0  0  0  0  0  0  0  0
    6.0308    8.0766   23.0516 S   0  0  0  0  0  0  0  0  0  0  0  0
    6.4145    7.4416   21.9119 H   0  0  0  0  0  0  0  0  0  0  0  0
    5.7029    4.1815   25.2186 C   0  0  0  0  0  0  0  0  0  0  0  0
    6.3029    3.4515   25.5460 C   0  0  0  0  0  0  0  0  0  0  0  0
    7.0613    3.5581   26.1890 C   0  0  0  0  0  0  0  0  0  0  0  0
    7.4769    2.6593   26.3283 N   0  0  0  0  0  0  0  0  0  0  0  0
    6.9754    1.9972   25.7715 C   0  0  0  0  0  0  0  0  0  0  0  0
    6.2497    2.4869   25.2880 N   0  0  0  0  0  0  0  0  0  0  0  0
    5.5976    2.0890   24.6669 H   0  0  0  0  0  0  0  0  0  0  0  0
    4.2115    3.7974   21.5939 C   0  0  0  0  0  0  0  0  0  0  0  0
    4.1513    4.3752   20.7800 C   0  0  0  0  0  0  0  0  0  0  0  0
    3.4382    4.2073   20.0993 C   0  0  0  0  0  0  0  0  0  0  0  0
    3.3553    3.3061   19.6739 O   0  0  0  0  0  0  0  0  0  0  0  0
    2.8082    4.9407   19.8439 N   0  0  0  0  0  0  0  0  0  0  0  0
    2.8899    5.8279   20.2627 H   0  0  0  0  0  0  0  0  0  0  0  0
    2.1062    4.7754   19.1738 H   0  0  0  0  0  0  0  0  0  0  0  0
    6.9220    1.7954   20.4824 C   0  0  0  0  0  0  0  0  0  0  0  0
    6.5128    0.9849   20.0634 C   0  0  0  0  0  0  0  0  0  0  0  0
    6.4530    0.9130   19.0678 C   0  0  0  0  0  0  0  0  0  0  0  0
    5.6711    0.4542   18.6457 C   0  0  0  0  0  0  0  0  0  0  0  0
    5.7924   -0.0628   17.7983 N   0  0  0  0  0  0  0  0  0  0  0  0
    6.7137   -0.1222   17.3645 H   0  0  0  0  0  0  0  0  0  0  0  0
    4.9949   -0.5308   17.3678 H   0  0  0  0  0  0  0  0  0  0  0  0
    9.6632    0.1724   22.3566 C   0  0  0  0  0  0  0  0  0  0  0  0
    9.9971    0.4022   21.4424 O   0  0  0  0  0  0  0  0  0  0  0  0
    9.2771    0.8854   22.9418 N   0  0  0  0  0  0  0  0  0  0  0  0
    8.9484    0.6591   23.8418 H   0  0  0  0  0  0  0  0  0  0  0  0
    9.7153   -0.7706   22.6855 C   0  0  0  0  0  0  0  0  0  0  0  0
    8.1871   -1.5755   22.8141 C   0  0  0  0  0  0  0  0  0  0  0  0
    8.1324   -1.6311   21.8171 O   0  0  0  0  0  0  0  0  0  0  0  0
    8.9785   -1.1453   23.2482 N   0  0  0  0  0  0  0  0  0  0  0  0
    9.0324   -1.0905   24.2298 H   0  0  0  0  0  0  0  0  0  0  0  0
    7.4503   -1.9503   23.3769 C   0  0  0  0  0  0  0  0  0  0  0  0
    7.2837   -3.4869   24.1584 C   0  0  0  0  0  0  0  0  0  0  0  0
    7.5503   -3.0731   25.0289 O   0  0  0  0  0  0  0  0  0  0  0  0
    7.2338   -2.9255   23.3324 N   0  0  0  0  0  0  0  0  0  0  0  0
    6.9714   -3.3329   22.4755 H   0  0  0  0  0  0  0  0  0  0  0  0
    7.0672   -4.4622   24.1140 C   0  0  0  0  0  0  0  0  0  0  0  0
    7.6422   -5.0780   23.5755 C   0  0  0  0  0  0  0  0  0  0  0  0
    5.8377   -5.6673   24.3033 C   0  0  0  0  0  0  0  0  0  0  0  0
    6.1914   -6.1537   23.5044 O   0  0  0  0  0  0  0  0  0  0  0  0
    6.2756   -4.8216   24.6082 N   0  0  0  0  0  0  0  0  0  0  0  0
    5.9273   -4.3428   25.3947 H   0  0  0  0  0  0  0  0  0  0  0  0
    5.0461   -6.0268   24.7975 C   0  0  0  0  0  0  0  0  0  0  0  0
    5.0401   -5.8770   26.5230 C   0  0  0  0  0  0  0  0  0  0  0  0
    5.6790   -6.6431   26.5917 O   0  0  0  0  0  0  0  0  0  0  0  0
    4.7236   -5.5688   25.6259 N   0  0  0  0  0  0  0  0  0  0  0  0
    4.0945   -4.8146   25.5582 H   0  0  0  0  0  0  0  0  0  0  0  0
    4.7176   -5.4190   27.3514 C   0  0  0  0  0  0  0  0  0  0  0  0
    3.6680   -6.3017   28.4093 C   0  0  0  0  0  0  0  0  0  0  0  0
    4.4533   -6.8078   28.7661 O   0  0  0  0  0  0  0  0  0  0  0  0
    3.8002   -5.6073   27.7020 N   0  0  0  0  0  0  0  0  0  0  0  0
    3.0272   -5.1090   27.3508 H   0  0  0  0  0  0  0  0  0  0  0  0
    2.4692   -6.1234   29.6467 N   0  0  0  0  0  0  0  0  0  0  0  0
    2.7506   -6.4900   28.7599 C   0  0  0  0  0  0  0  0  0  0  0  0
    1.5335   -6.3154   30.0043 H   0  0  0  0  0  0  0  0  0  0  0  0
    3.1180   -5.5573   30.1936 H   0  0  0  0  0  0  0  0  0  0  0  0
    2.1146   -7.0449   28.2237 C   0  0  0  0  0  0  0  0  0  0  0  0
    2.3491   -7.9884   27.9894 O   0  0  0  0  0  0  0  0  0  0  0  0
    1.2440   -6.6564   27.9218 C   0  0  0  0  0  0  0  0  0  0  0  0
    3.1936   -8.3652   28.2822 H   0  0  0  0  0  0  0  0  0  0  0  0
    5.3125   -4.7727   27.8292 C   0  0  0  0  0  0  0  0  0  0  0  0
    5.1541   -3.7891   27.7425 C   0  0  0  0  0  0  0  0  0  0  0  0
    5.7543   -3.1425   28.2133 C   0  0  0  0  0  0  0  0  0  0  0  0
    5.5032   -2.7934   29.1161 O   0  0  0  0  0  0  0  0  0  0  0  0
    6.6057   -2.8450   27.7813 N   0  0  0  0  0  0  0  0  0  0  0  0
    6.8529   -3.1887   26.8925 H   0  0  0  0  0  0  0  0  0  0  0  0
    7.1966   -2.2084   28.2448 H   0  0  0  0  0  0  0  0  0  0  0  0
    4.5769   -6.8442   24.4632 C   0  0  0  0  0  0  0  0  0  0  0  0
    3.6010   -6.8079   24.2483 C   0  0  0  0  0  0  0  0  0  0  0  0
    3.0672   -7.6523   24.2034 C   0  0  0  0  0  0  0  0  0  0  0  0
    3.0634   -8.2833   24.9792 O   0  0  0  0  0  0  0  0  0  0  0  0
    2.5371   -7.8657   23.3827 N   0  0  0  0  0  0  0  0  0  0  0  0
    2.5408   -7.2445   22.6190 H   0  0  0  0  0  0  0  0  0  0  0  0
    2.0115   -8.6970   23.3385 H   0  0  0  0  0  0  0  0  0  0  0  0
    6.9301   -1.3497   23.9841 C   0  0  0  0  0  0  0  0  0  0  0  0
    6.2181   -0.7556   23.6099 O   0  0  0  0  0  0  0  0  0  0  0  0
    5.7135   -0.1730   24.1989 H   0  0  0  0  0  0  0  0  0  0  0  0
   10.5043   -1.3388   22.4515 C   0  0  0  0  0  0  0  0  0  0  0  0
   11.2260   -1.4944   23.1259 C   0  0  0  0  0  0  0  0  0  0  0  0
   11.3005   -2.2834   23.7357 C   0  0  0  0  0  0  0  0  0  0  0  0
   12.1206   -2.1650   24.2957 N   0  0  0  0  0  0  0  0  0  0  0  0
   12.5528   -1.3026   24.0320 C   0  0  0  0  0  0  0  0  0  0  0  0
   11.9999   -0.8882   23.3091 N   0  0  0  0  0  0  0  0  0  0  0  0
   12.1851   -0.0334   22.8570 H   0  0  0  0  0  0  0  0  0  0  0  0
 95 96  1  0  0  0
 95 97  1  0  0  0
 95 98  1  0  0  0
 96 91  1  0  0  0
 96 99  1  0  0  0
 91 92  2  0  0  0
 91 93  1  0  0  0
 93 90  1  0  0  0
 93 94  1  0  0  0
 90103  1  0  0  0
 90 86  1  0  0  0
103104  1  0  0  0
104105  1  0  0  0
105106  2  0  0  0
105107  1  0  0  0
107108  1  0  0  0
107109  1  0  0  0
 86 87  2  0  0  0
 86 88  1  0  0  0
 88 85  1  0  0  0
 88 89  1  0  0  0
 85110  1  0  0  0
 85 81  1  0  0  0
110111  1  0  0  0
111112  1  0  0  0
112113  2  0  0  0
112114  1  0  0  0
114115  1  0  0  0
114116  1  0  0  0
 81 82  2  0  0  0
 81 83  1  0  0  0
 83 79  1  0  0  0
 83 84  1  0  0  0
 79 80  1  0  0  0
 79 75  1  0  0  0
 75 76  2  0  0  0
 75 77  1  0  0  0
 77 74  1  0  0  0
 77 78  1  0  0  0
 74117  1  0  0  0
 74 70  1  0  0  0
117118  1  0  0  0
118119  1  0  0  0
 70 71  2  0  0  0
 70 72  1  0  0  0
 72 69  1  0  0  0
 72 73  1  0  0  0
 69120  1  0  0  0
 69 65  1  0  0  0
120121  1  0  0  0
121125  1  0  0  0
121122  2  0  0  0
122123  1  0  0  0
123124  2  0  0  0
124125  1  0  0  0
125126  1  0  0  0
 65 66  2  0  0  0
 65 67  1  0  0  0
 67  1  1  0  0  0
 67 68  1  0  0  0
  1  2  1  0  0  0
  1 10  1  0  0  0
  2  8  2  0  0  0
  2  3  1  0  0  0
  3  4  2  0  0  0
  4  5  1  0  0  0
  5  6  1  0  0  0
  5  7  2  0  0  0
  6  9  1  0  0  0
  7  8  1  0  0  0
 10 11  2  0  0  0
 10 12  1  0  0  0
 12 14  1  0  0  0
 12 13  1  0  0  0
 14 58  1  0  0  0
 14 15  1  0  0  0
 58 59  1  0  0  0
 59 60  1  0  0  0
 60 61  1  0  0  0
 61 62  1  0  0  0
 62 63  1  0  0  0
 62 64  1  0  0  0
 15 16  2  0  0  0
 15 17  1  0  0  0
 17 19  1  0  0  0
 17 18  1  0  0  0
 19 51  1  0  0  0
 19 20  1  0  0  0
 51 52  1  0  0  0
 52 53  1  0  0  0
 53 54  2  0  0  0
 53 55  1  0  0  0
 55 56  1  0  0  0
 55 57  1  0  0  0
 20 21  2  0  0  0
 20 22  1  0  0  0
 22 24  1  0  0  0
 22 23  1  0  0  0
 24 44  1  0  0  0
 24 25  1  0  0  0
 44 45  1  0  0  0
 45 49  1  0  0  0
 45 46  2  0  0  0
 46 47  1  0  0  0
 47 48  2  0  0  0
 48 49  1  0  0  0
 49 50  1  0  0  0
 25 26  2  0  0  0
 25 27  1  0  0  0
 27 29  1  0  0  0
 27 28  1  0  0  0
 29 41  1  0  0  0
 29 30  1  0  0  0
 41 42  1  0  0  0
 42 43  1  0  0  0
 30 31  2  0  0  0
 30 32  1  0  0  0
 32 36  1  0  0  0
 32 33  1  0  0  0
 33 34  1  0  0  0
 34 35  1  0  0  0
 35 36  1  0  0  0
 36 37  1  0  0  0
 37 38  1  0  0  0
 37 39  2  0  0  0
 38 40  1  0  0  0
 99100  1  0  0  0
 99101  1  0  0  0
100102  1  0  0  0
M  END
> <minimizedAffinity>
-8.23906

$$$$



126129  0  0  0  0  0  0  0  0999 V2000
    9.3519    1.5279   22.4183 C   0  0  0  0  0  0  0  0  0  0  0  0
   10.0656    2.1782   22.6785 C   0  0  0  0  0  0  0  0  0  0  0  0
   10.8633    2.3073   22.0894 C   0  0  0  0  0  0  0  0  0  0  0  0
   11.5771    2.9576   22.3496 C   0  0  0  0  0  0  0  0  0  0  0  0
   11.4931    3.4788   23.1989 C   0  0  0  0  0  0  0  0  0  0  0  0
   12.2069    4.1291   23.4590 O   0  0  0  0  0  0  0  0  0  0  0  0
   10.6955    3.3497   23.7880 C   0  0  0  0  0  0  0  0  0  0  0  0
    9.9817    2.6995   23.5278 C   0  0  0  0  0  0  0  0  0  0  0  0
   12.9543    4.2500   22.9070 H   0  0  0  0  0  0  0  0  0  0  0  0
    8.6665    1.7841   21.7367 C   0  0  0  0  0  0  0  0  0  0  0  0
    8.8967    2.4405   21.0183 O   0  0  0  0  0  0  0  0  0  0  0  0
    7.7509    1.3838   21.7735 N   0  0  0  0  0  0  0  0  0  0  0  0
    7.5242    0.7375   22.4808 H   0  0  0  0  0  0  0  0  0  0  0  0
    7.0654    1.6399   21.0919 C   0  0  0  0  0  0  0  0  0  0  0  0
    6.2027    2.0545   21.3816 C   0  0  0  0  0  0  0  0  0  0  0  0
    5.5742    1.5431   21.9675 O   0  0  0  0  0  0  0  0  0  0  0  0
    5.9686    2.9805   21.0853 N   0  0  0  0  0  0  0  0  0  0  0  0
    6.5875    3.4839   20.5084 H   0  0  0  0  0  0  0  0  0  0  0  0
    5.1060    3.3950   21.3750 C   0  0  0  0  0  0  0  0  0  0  0  0
    5.1060    4.1193   22.0645 C   0  0  0  0  0  0  0  0  0  0  0  0
    5.0950    5.0785   21.7821 O   0  0  0  0  0  0  0  0  0  0  0  0
    5.1171    3.8843   23.0365 N   0  0  0  0  0  0  0  0  0  0  0  0
    5.1279    2.9399   23.3146 H   0  0  0  0  0  0  0  0  0  0  0  0
    5.1171    4.6086   23.7260 C   0  0  0  0  0  0  0  0  0  0  0  0
    5.9760    4.8940   24.1512 C   0  0  0  0  0  0  0  0  0  0  0  0
    6.5737    4.2142   24.5762 O   0  0  0  0  0  0  0  0  0  0  0  0
    6.2372    5.8593   24.1515 N   0  0  0  0  0  0  0  0  0  0  0  0
    5.6488    6.5285   23.7332 H   0  0  0  0  0  0  0  0  0  0  0  0
    7.0961    6.1447   24.5767 C   0  0  0  0  0  0  0  0  0  0  0  0
    7.8912    6.3528   24.0070 C   0  0  0  0  0  0  0  0  0  0  0  0
    8.7266    5.8107   24.0972 O   0  0  0  0  0  0  0  0  0  0  0  0
    7.8507    7.1031   23.3470 N   0  0  0  0  0  0  0  0  0  0  0  0
    7.0654    7.7000   23.1831 C   0  0  0  0  0  0  0  0  0  0  0  0
    7.3179    8.3539   22.4698 C   0  0  0  0  0  0  0  0  0  0  0  0
    8.2593    8.1610   22.1930 C   0  0  0  0  0  0  0  0  0  0  0  0
    8.5886    7.3880   22.7351 C   0  0  0  0  0  0  0  0  0  0  0  0
    9.4963    6.9728   22.6757 C   0  0  0  0  0  0  0  0  0  0  0  0
    9.6664    6.2337   22.0239 O   0  0  0  0  0  0  0  0  0  0  0  0
   10.2340    7.2966   23.2682 O   0  0  0  0  0  0  0  0  0  0  0  0
    8.9753    5.9303   21.4688 H   0  0  0  0  0  0  0  0  0  0  0  0
    7.1600    6.2221   25.5717 C   0  0  0  0  0  0  0  0  0  0  0  0
    6.7616    7.0117   26.0385 S   0  0  0  0  0  0  0  0  0  0  0  0
    6.1328    7.9803   25.3201 H   0  0  0  0  0  0  0  0  0  0  0  0
    4.2583    5.0473   23.9904 C   0  0  0  0  0  0  0  0  0  0  0  0
    3.7089    4.6642   24.7329 C   0  0  0  0  0  0  0  0  0  0  0  0
    3.2434    5.1848   25.4487 C   0  0  0  0  0  0  0  0  0  0  0  0
    2.7753    4.5356   26.0482 N   0  0  0  0  0  0  0  0  0  0  0  0
    2.9514    3.6137   25.7028 C   0  0  0  0  0  0  0  0  0  0  0  0
    3.5284    3.6933   24.8899 N   0  0  0  0  0  0  0  0  0  0  0  0
    3.8604    2.9467   24.3407 H   0  0  0  0  0  0  0  0  0  0  0  0
    4.2433    3.0854   20.9752 C   0  0  0  0  0  0  0  0  0  0  0  0
    4.0199    3.3158   20.0281 C   0  0  0  0  0  0  0  0  0  0  0  0
    3.2647    2.8516   19.5653 C   0  0  0  0  0  0  0  0  0  0  0  0
    3.2633    1.8546   19.4872 O   0  0  0  0  0  0  0  0  0  0  0  0
    2.5109    3.3843   19.1807 N   0  0  0  0  0  0  0  0  0  0  0  0
    2.5123    4.3658   19.2576 H   0  0  0  0  0  0  0  0  0  0  0  0
    1.7674    2.9273   18.7251 H   0  0  0  0  0  0  0  0  0  0  0  0
    7.2426    1.4814   20.1206 C   0  0  0  0  0  0  0  0  0  0  0  0
    6.8367    0.6916   19.6606 C   0  0  0  0  0  0  0  0  0  0  0  0
    6.8866    0.6127   18.6650 C   0  0  0  0  0  0  0  0  0  0  0  0
    6.0516    0.4774   18.1316 C   0  0  0  0  0  0  0  0  0  0  0  0
    5.8944   -0.3904   17.6603 N   0  0  0  0  0  0  0  0  0  0  0  0
    6.5859   -1.1376   17.7236 H   0  0  0  0  0  0  0  0  0  0  0  0
    5.0428   -0.5284   17.1163 H   0  0  0  0  0  0  0  0  0  0  0  0
    9.7103   -0.1656   22.3594 C   0  0  0  0  0  0  0  0  0  0  0  0
   10.1255   -0.0463   21.4574 O   0  0  0  0  0  0  0  0  0  0  0  0
    9.3235    0.6215   22.8398 N   0  0  0  0  0  0  0  0  0  0  0  0
    8.9148    0.5041   23.7277 H   0  0  0  0  0  0  0  0  0  0  0  0
    9.6820   -1.0720   22.7808 C   0  0  0  0  0  0  0  0  0  0  0  0
    8.0969   -1.6994   23.0874 C   0  0  0  0  0  0  0  0  0  0  0  0
    7.9739   -1.8667   22.1092 O   0  0  0  0  0  0  0  0  0  0  0  0
    8.9510   -1.3021   23.4232 N   0  0  0  0  0  0  0  0  0  0  0  0
    9.0721   -1.1374   24.3863 H   0  0  0  0  0  0  0  0  0  0  0  0
    7.3659   -1.9295   23.7297 C   0  0  0  0  0  0  0  0  0  0  0  0
    7.0647   -3.3335   24.6982 C   0  0  0  0  0  0  0  0  0  0  0  0
    7.3957   -2.8468   25.5067 O   0  0  0  0  0  0  0  0  0  0  0  0
    7.0498   -2.8748   23.8098 N   0  0  0  0  0  0  0  0  0  0  0  0
    6.7240   -3.3539   23.0139 H   0  0  0  0  0  0  0  0  0  0  0  0
    6.7486   -4.2788   24.7783 C   0  0  0  0  0  0  0  0  0  0  0  0
    7.2918   -5.0224   24.3884 C   0  0  0  0  0  0  0  0  0  0  0  0
    5.8850   -5.0850   26.0448 C   0  0  0  0  0  0  0  0  0  0  0  0
    6.7401   -5.4876   26.3716 O   0  0  0  0  0  0  0  0  0  0  0  0
    5.8893   -4.4806   25.2482 N   0  0  0  0  0  0  0  0  0  0  0  0
    5.0475   -4.0843   24.9265 H   0  0  0  0  0  0  0  0  0  0  0  0
    5.0257   -5.2868   26.5148 C   0  0  0  0  0  0  0  0  0  0  0  0
    4.0760   -6.5968   25.8966 C   0  0  0  0  0  0  0  0  0  0  0  0
    4.7043   -7.2509   26.3176 O   0  0  0  0  0  0  0  0  0  0  0  0
    4.2367   -5.6147   25.9952 N   0  0  0  0  0  0  0  0  0  0  0  0
    3.6182   -4.9706   25.5807 H   0  0  0  0  0  0  0  0  0  0  0  0
    3.2870   -6.9246   25.3770 C   0  0  0  0  0  0  0  0  0  0  0  0
    1.8569   -7.4724   26.1861 C   0  0  0  0  0  0  0  0  0  0  0  0
    1.5462   -6.5263   26.2775 O   0  0  0  0  0  0  0  0  0  0  0  0
    2.7273   -7.6715   25.7359 N   0  0  0  0  0  0  0  0  0  0  0  0
    3.0332   -8.6030   25.6459 H   0  0  0  0  0  0  0  0  0  0  0  0
    0.9910   -8.9516   25.9367 N   0  0  0  0  0  0  0  0  0  0  0  0
    1.2972   -8.2194   26.5451 C   0  0  0  0  0  0  0  0  0  0  0  0
    0.4201   -9.7135   26.3027 H   0  0  0  0  0  0  0  0  0  0  0  0
    1.2496   -8.9365   24.9501 H   0  0  0  0  0  0  0  0  0  0  0  0
    1.0437   -8.2341   27.5123 C   0  0  0  0  0  0  0  0  0  0  0  0
    1.7492   -8.3439   28.2124 O   0  0  0  0  0  0  0  0  0  0  0  0
    0.0848   -8.1392   27.7793 C   0  0  0  0  0  0  0  0  0  0  0  0
    2.6795   -8.4360   27.9533 H   0  0  0  0  0  0  0  0  0  0  0  0
    3.0577   -6.5056   24.4985 C   0  0  0  0  0  0  0  0  0  0  0  0
    3.3687   -6.9276   23.6469 C   0  0  0  0  0  0  0  0  0  0  0  0
    3.3773   -6.3965   22.7996 C   0  0  0  0  0  0  0  0  0  0  0  0
    2.5232   -6.0308   22.4300 O   0  0  0  0  0  0  0  0  0  0  0  0
    4.2402   -6.2310   22.3220 N   0  0  0  0  0  0  0  0  0  0  0  0
    5.0811   -6.5910   22.6860 H   0  0  0  0  0  0  0  0  0  0  0  0
    4.2487   -5.7081   21.4879 H   0  0  0  0  0  0  0  0  0  0  0  0
    4.9553   -5.1608   27.5043 C   0  0  0  0  0  0  0  0  0  0  0  0
    4.3464   -4.4606   27.8771 C   0  0  0  0  0  0  0  0  0  0  0  0
    4.3938   -4.2217   28.8470 C   0  0  0  0  0  0  0  0  0  0  0  0
    4.1396   -4.8954   29.5409 O   0  0  0  0  0  0  0  0  0  0  0  0
    4.6955   -3.3091   29.1230 N   0  0  0  0  0  0  0  0  0  0  0  0
    4.9458   -2.6458   28.4398 H   0  0  0  0  0  0  0  0  0  0  0  0
    4.7422   -3.0739   30.0779 H   0  0  0  0  0  0  0  0  0  0  0  0
    6.9510   -1.2142   24.2920 C   0  0  0  0  0  0  0  0  0  0  0  0
    6.4434   -0.4693   23.8591 O   0  0  0  0  0  0  0  0  0  0  0  0
    6.0409    0.2245   24.4046 H   0  0  0  0  0  0  0  0  0  0  0  0
   10.3847   -1.7483   22.5599 C   0  0  0  0  0  0  0  0  0  0  0  0
   11.2075   -1.8171   23.1241 C   0  0  0  0  0  0  0  0  0  0  0  0
   12.1454   -1.9011   22.7877 C   0  0  0  0  0  0  0  0  0  0  0  0
   12.7545   -1.9499   23.5795 N   0  0  0  0  0  0  0  0  0  0  0  0
   12.1928   -1.8960   24.4051 C   0  0  0  0  0  0  0  0  0  0  0  0
   11.2367   -1.8140   24.1236 N   0  0  0  0  0  0  0  0  0  0  0  0
   10.4605   -1.7426   24.7250 H   0  0  0  0  0  0  0  0  0  0  0  0
 95 96  1  0  0  0
 95 97  1  0  0  0
 95 98  1  0  0  0
 96 91  1  0  0  0
 96 99  1  0  0  0
 91 92  2  0  0  0
 91 93  1  0  0  0
 93 90  1  0  0  0
 93 94  1  0  0  0
 90103  1  0  0  0
 90 86  1  0  0  0
103104  1  0  0  0
104105  1  0  0  0
105106  2  0  0  0
105107  1  0  0  0
107108  1  0  0  0
107109  1  0  0  0
 86 87  2  0  0  0
 86 88  1  0  0  0
 88 85  1  0  0  0
 88 89  1  0  0  0
 85110  1  0  0  0
 85 81  1  0  0  0
110111  1  0  0  0
111112  1  0  0  0
112113  2  0  0  0
112114  1  0  0  0
114115  1  0  0  0
114116  1  0  0  0
 81 82  2  0  0  0
 81 83  1  0  0  0
 83 79  1  0  0  0
 83 84  1  0  0  0
 79 80  1  0  0  0
 79 75  1  0  0  0
 75 76  2  0  0  0
 75 77  1  0  0  0
 77 74  1  0  0  0
 77 78  1  0  0  0
 74117  1  0  0  0
 74 70  1  0  0  0
117118  1  0  0  0
118119  1  0  0  0
 70 71  2  0  0  0
 70 72  1  0  0  0
 72 69  1  0  0  0
 72 73  1  0  0  0
 69120  1  0  0  0
 69 65  1  0  0  0
120121  1  0  0  0
121125  1  0  0  0
121122  2  0  0  0
122123  1  0  0  0
123124  2  0  0  0
124125  1  0  0  0
125126  1  0  0  0
 65 66  2  0  0  0
 65 67  1  0  0  0
 67  1  1  0  0  0
 67 68  1  0  0  0
  1  2  1  0  0  0
  1 10  1  0  0  0
  2  8  2  0  0  0
  2  3  1  0  0  0
  3  4  2  0  0  0
  4  5  1  0  0  0
  5  6  1  0  0  0
  5  7  2  0  0  0
  6  9  1  0  0  0
  7  8  1  0  0  0
 10 11  2  0  0  0
 10 12  1  0  0  0
 12 14  1  0  0  0
 12 13  1  0  0  0
 14 58  1  0  0  0
 14 15  1  0  0  0
 58 59  1  0  0  0
 59 60  1  0  0  0
 60 61  1  0  0  0
 61 62  1  0  0  0
 62 63  1  0  0  0
 62 64  1  0  0  0
 15 16  2  0  0  0
 15 17  1  0  0  0
 17 19  1  0  0  0
 17 18  1  0  0  0
 19 51  1  0  0  0
 19 20  1  0  0  0
 51 52  1  0  0  0
 52 53  1  0  0  0
 53 54  2  0  0  0
 53 55  1  0  0  0
 55 56  1  0  0  0
 55 57  1  0  0  0
 20 21  2  0  0  0
 20 22  1  0  0  0
 22 24  1  0  0  0
 22 23  1  0  0  0
 24 44  1  0  0  0
 24 25  1  0  0  0
 44 45  1  0  0  0
 45 49  1  0  0  0
 45 46  2  0  0  0
 46 47  1  0  0  0
 47 48  2  0  0  0
 48 49  1  0  0  0
 49 50  1  0  0  0
 25 26  2  0  0  0
 25 27  1  0  0  0
 27 29  1  0  0  0
 27 28  1  0  0  0
 29 41  1  0  0  0
 29 30  1  0  0  0
 41 42  1  0  0  0
 42 43  1  0  0  0
 30 31  2  0  0  0
 30 32  1  0  0  0
 32 36  1  0  0  0
 32 33  1  0  0  0
 33 34  1  0  0  0
 34 35  1  0  0  0
 35 36  1  0  0  0
 36 37  1  0  0  0
 37 38  1  0  0  0
 37 39  2  0  0  0
 38 40  1  0  0  0
 99100  1  0  0  0
 99101  1  0  0  0
100102  1  0  0  0
M  END
> <minimizedAffinity>
-8.09808

$$$$



126129  0  0  0  0  0  0  0  0999 V2000
    9.9031    1.1858   22.4590 C   0  0  0  0  0  0  0  0  0  0  0  0
   10.5825    1.8389   22.7935 C   0  0  0  0  0  0  0  0  0  0  0  0
   10.2914    2.6376   23.3200 C   0  0  0  0  0  0  0  0  0  0  0  0
   10.9708    3.2907   23.6546 C   0  0  0  0  0  0  0  0  0  0  0  0
   11.9413    3.1450   23.4627 C   0  0  0  0  0  0  0  0  0  0  0  0
   12.6207    3.7980   23.7972 O   0  0  0  0  0  0  0  0  0  0  0  0
   12.2325    2.3462   22.9362 C   0  0  0  0  0  0  0  0  0  0  0  0
   11.5531    1.6932   22.6016 C   0  0  0  0  0  0  0  0  0  0  0  0
   12.3479    4.5465   24.2906 H   0  0  0  0  0  0  0  0  0  0  0  0
    9.2979    1.4369   21.7036 C   0  0  0  0  0  0  0  0  0  0  0  0
    9.6261    2.0451   20.9808 O   0  0  0  0  0  0  0  0  0  0  0  0
    8.3644    1.0797   21.6709 N   0  0  0  0  0  0  0  0  0  0  0  0
    8.0413    0.4810   22.3824 H   0  0  0  0  0  0  0  0  0  0  0  0
    7.7591    1.3308   20.9154 C   0  0  0  0  0  0  0  0  0  0  0  0
    7.0752    2.0495   21.0404 C   0  0  0  0  0  0  0  0  0  0  0  0
    7.1912    2.9340   20.5885 O   0  0  0  0  0  0  0  0  0  0  0  0
    6.2753    1.8838   21.6172 N   0  0  0  0  0  0  0  0  0  0  0  0
    6.1612    1.0130   22.0620 H   0  0  0  0  0  0  0  0  0  0  0  0
    5.5914    2.6025   21.7421 C   0  0  0  0  0  0  0  0  0  0  0  0
    5.5280    3.0860   22.6151 C   0  0  0  0  0  0  0  0  0  0  0  0
    4.6785    3.5479   22.8704 O   0  0  0  0  0  0  0  0  0  0  0  0
    6.3141    3.1077   23.2329 N   0  0  0  0  0  0  0  0  0  0  0  0
    7.1503    2.6531   22.9816 H   0  0  0  0  0  0  0  0  0  0  0  0
    6.2507    3.5913   24.1060 C   0  0  0  0  0  0  0  0  0  0  0  0
    6.2084    3.0752   24.9614 C   0  0  0  0  0  0  0  0  0  0  0  0
    6.9791    2.5008   25.2373 O   0  0  0  0  0  0  0  0  0  0  0  0
    5.3956    3.1335   25.5409 N   0  0  0  0  0  0  0  0  0  0  0  0
    4.6369    3.6990   25.2692 H   0  0  0  0  0  0  0  0  0  0  0  0
    5.3533    2.6174   26.3964 C   0  0  0  0  0  0  0  0  0  0  0  0
    4.8532    1.7523   26.4343 C   0  0  0  0  0  0  0  0  0  0  0  0
    5.3241    0.9141   26.7092 O   0  0  0  0  0  0  0  0  0  0  0  0
    3.8820    1.7254   26.1972 N   0  0  0  0  0  0  0  0  0  0  0  0
    3.3249    2.5052   25.9117 C   0  0  0  0  0  0  0  0  0  0  0  0
    2.3961    2.1757   25.7421 C   0  0  0  0  0  0  0  0  0  0  0  0
    2.3793    1.1923   25.9227 C   0  0  0  0  0  0  0  0  0  0  0  0
    3.2976    0.9140   26.2039 C   0  0  0  0  0  0  0  0  0  0  0  0
    3.5817   -0.0129   26.4489 C   0  0  0  0  0  0  0  0  0  0  0  0
    3.9335   -0.6305   25.7455 O   0  0  0  0  0  0  0  0  0  0  0  0
    3.5139   -0.3224   27.3975 O   0  0  0  0  0  0  0  0  0  0  0  0
    3.9971   -0.3405   24.8568 H   0  0  0  0  0  0  0  0  0  0  0  0
    5.8113    2.9664   27.2141 C   0  0  0  0  0  0  0  0  0  0  0  0
    5.4118    3.7281   27.7242 S   0  0  0  0  0  0  0  0  0  0  0  0
    4.2458    4.2895   27.3060 H   0  0  0  0  0  0  0  0  0  0  0  0
    6.2295    4.5909   24.1235 C   0  0  0  0  0  0  0  0  0  0  0  0
    7.0662    5.1118   23.9545 C   0  0  0  0  0  0  0  0  0  0  0  0
    7.6202    5.5750   24.6463 C   0  0  0  0  0  0  0  0  0  0  0  0
    8.3922    6.0104   24.1834 N   0  0  0  0  0  0  0  0  0  0  0  0
    8.3155    5.8162   23.2053 C   0  0  0  0  0  0  0  0  0  0  0  0
    7.4960    5.2608   23.0639 N   0  0  0  0  0  0  0  0  0  0  0  0
    7.1697    4.9206   22.1996 H   0  0  0  0  0  0  0  0  0  0  0  0
    4.9708    2.8377   20.9940 C   0  0  0  0  0  0  0  0  0  0  0  0
    4.1969    2.2416   20.7802 C   0  0  0  0  0  0  0  0  0  0  0  0
    3.9324    2.0878   19.8282 C   0  0  0  0  0  0  0  0  0  0  0  0
    3.9760    1.1674   19.4396 O   0  0  0  0  0  0  0  0  0  0  0  0
    3.6243    2.8544   19.2647 N   0  0  0  0  0  0  0  0  0  0  0  0
    3.5814    3.7605   19.6473 H   0  0  0  0  0  0  0  0  0  0  0  0
    3.3639    2.7029   18.3275 H   0  0  0  0  0  0  0  0  0  0  0  0
    7.8378    0.8630   20.0351 C   0  0  0  0  0  0  0  0  0  0  0  0
    7.4580   -0.0550   19.9210 C   0  0  0  0  0  0  0  0  0  0  0  0
    7.2704   -0.4081   19.0044 C   0  0  0  0  0  0  0  0  0  0  0  0
    6.3651   -0.7712   18.7841 C   0  0  0  0  0  0  0  0  0  0  0  0
    5.9635   -0.6012   17.8842 N   0  0  0  0  0  0  0  0  0  0  0  0
    6.4774   -0.0572   17.1910 H   0  0  0  0  0  0  0  0  0  0  0  0
    5.0401   -0.9716   17.6595 H   0  0  0  0  0  0  0  0  0  0  0  0
   10.2476   -0.5115   22.4376 C   0  0  0  0  0  0  0  0  0  0  0  0
   10.7404   -0.4006   21.5745 O   0  0  0  0  0  0  0  0  0  0  0  0
    9.8289    0.2817   22.8798 N   0  0  0  0  0  0  0  0  0  0  0  0
    9.3438    0.1726   23.7295 H   0  0  0  0  0  0  0  0  0  0  0  0
   10.1734   -1.4156   22.8585 C   0  0  0  0  0  0  0  0  0  0  0  0
    8.5916   -2.1208   22.8339 C   0  0  0  0  0  0  0  0  0  0  0  0
    8.6874   -2.3017   21.8551 O   0  0  0  0  0  0  0  0  0  0  0  0
    9.3346   -1.6777   23.3356 N   0  0  0  0  0  0  0  0  0  0  0  0
    9.2403   -1.4996   24.2993 H   0  0  0  0  0  0  0  0  0  0  0  0
    7.7528   -2.3829   23.3111 C   0  0  0  0  0  0  0  0  0  0  0  0
    7.3499   -3.7778   24.2555 C   0  0  0  0  0  0  0  0  0  0  0  0
    7.4768   -3.2471   25.0934 O   0  0  0  0  0  0  0  0  0  0  0  0
    7.4879   -3.3457   23.3643 N   0  0  0  0  0  0  0  0  0  0  0  0
    7.3629   -3.8681   22.5393 H   0  0  0  0  0  0  0  0  0  0  0  0
    7.0849   -4.7406   24.3087 C   0  0  0  0  0  0  0  0  0  0  0  0
    7.4491   -5.3967   23.6477 C   0  0  0  0  0  0  0  0  0  0  0  0
    5.5504   -5.3931   24.7768 C   0  0  0  0  0  0  0  0  0  0  0  0
    5.2741   -5.4322   23.8165 O   0  0  0  0  0  0  0  0  0  0  0  0
    6.4558   -5.0473   25.0229 N   0  0  0  0  0  0  0  0  0  0  0  0
    6.7279   -5.0089   25.9682 H   0  0  0  0  0  0  0  0  0  0  0  0
    4.9212   -5.6999   25.4910 C   0  0  0  0  0  0  0  0  0  0  0  0
    4.5945   -4.6421   26.8230 C   0  0  0  0  0  0  0  0  0  0  0  0
    3.9596   -4.1205   26.2531 O   0  0  0  0  0  0  0  0  0  0  0  0
    5.0753   -5.4318   26.4420 N   0  0  0  0  0  0  0  0  0  0  0  0
    5.7004   -5.9453   27.0031 H   0  0  0  0  0  0  0  0  0  0  0  0
    4.7486   -4.3740   27.7740 C   0  0  0  0  0  0  0  0  0  0  0  0
    3.8804   -5.2492   28.9907 C   0  0  0  0  0  0  0  0  0  0  0  0
    3.0487   -4.7439   28.7607 O   0  0  0  0  0  0  0  0  0  0  0  0
    4.7304   -5.0642   28.4974 N   0  0  0  0  0  0  0  0  0  0  0  0
    5.5492   -5.5617   28.7238 H   0  0  0  0  0  0  0  0  0  0  0  0
    4.4972   -5.8739   30.4838 N   0  0  0  0  0  0  0  0  0  0  0  0
    3.8622   -5.9395   29.7141 C   0  0  0  0  0  0  0  0  0  0  0  0
    4.4787   -6.5779   31.2216 H   0  0  0  0  0  0  0  0  0  0  0  0
    5.1635   -5.1030   30.5310 H   0  0  0  0  0  0  0  0  0  0  0  0
    3.2090   -6.6952   29.6677 C   0  0  0  0  0  0  0  0  0  0  0  0
    3.3313   -7.4210   28.9907 O   0  0  0  0  0  0  0  0  0  0  0  0
    2.4335   -6.7252   30.2983 C   0  0  0  0  0  0  0  0  0  0  0  0
    4.0835   -7.3918   28.3789 H   0  0  0  0  0  0  0  0  0  0  0  0
    4.9210   -3.4157   28.0017 C   0  0  0  0  0  0  0  0  0  0  0  0
    5.8515   -3.0517   27.9613 C   0  0  0  0  0  0  0  0  0  0  0  0
    6.1679   -2.4093   28.6593 C   0  0  0  0  0  0  0  0  0  0  0  0
    5.5135   -1.9979   29.2937 O   0  0  0  0  0  0  0  0  0  0  0  0
    7.1388   -2.1782   28.7229 N   0  0  0  0  0  0  0  0  0  0  0  0
    7.7830   -2.5832   28.0983 H   0  0  0  0  0  0  0  0  0  0  0  0
    7.4502   -1.5457   29.4101 H   0  0  0  0  0  0  0  0  0  0  0  0
    4.1380   -6.2748   25.2542 C   0  0  0  0  0  0  0  0  0  0  0  0
    4.1094   -7.2287   25.5529 C   0  0  0  0  0  0  0  0  0  0  0  0
    3.2871   -7.7764   25.3989 C   0  0  0  0  0  0  0  0  0  0  0  0
    3.1522   -8.2407   24.5236 O   0  0  0  0  0  0  0  0  0  0  0  0
    2.5996   -7.8599   26.1204 N   0  0  0  0  0  0  0  0  0  0  0  0
    2.7324   -7.4028   26.9822 H   0  0  0  0  0  0  0  0  0  0  0  0
    1.7900   -8.3992   25.9688 H   0  0  0  0  0  0  0  0  0  0  0  0
    7.1790   -1.6822   23.7350 C   0  0  0  0  0  0  0  0  0  0  0  0
    6.6467   -1.0584   23.1628 O   0  0  0  0  0  0  0  0  0  0  0  0
    6.0900   -0.3787   23.5740 H   0  0  0  0  0  0  0  0  0  0  0  0
   10.9381   -2.0575   22.8021 C   0  0  0  0  0  0  0  0  0  0  0  0
   11.7230   -1.9551   23.4132 C   0  0  0  0  0  0  0  0  0  0  0  0
   12.6856   -2.0018   23.1464 C   0  0  0  0  0  0  0  0  0  0  0  0
   13.2408   -1.8635   23.9667 N   0  0  0  0  0  0  0  0  0  0  0  0
   12.6211   -1.7313   24.7404 C   0  0  0  0  0  0  0  0  0  0  0  0
   11.6831   -1.7880   24.3982 N   0  0  0  0  0  0  0  0  0  0  0  0
   10.8642   -1.6954   24.9368 H   0  0  0  0  0  0  0  0  0  0  0  0
 95 96  1  0  0  0
 95 97  1  0  0  0
 95 98  1  0  0  0
 96 91  1  0  0  0
 96 99  1  0  0  0
 91 92  2  0  0  0
 91 93  1  0  0  0
 93 90  1  0  0  0
 93 94  1  0  0  0
 90103  1  0  0  0
 90 86  1  0  0  0
103104  1  0  0  0
104105  1  0  0  0
105106  2  0  0  0
105107  1  0  0  0
107108  1  0  0  0
107109  1  0  0  0
 86 87  2  0  0  0
 86 88  1  0  0  0
 88 85  1  0  0  0
 88 89  1  0  0  0
 85110  1  0  0  0
 85 81  1  0  0  0
110111  1  0  0  0
111112  1  0  0  0
112113  2  0  0  0
112114  1  0  0  0
114115  1  0  0  0
114116  1  0  0  0
 81 82  2  0  0  0
 81 83  1  0  0  0
 83 79  1  0  0  0
 83 84  1  0  0  0
 79 80  1  0  0  0
 79 75  1  0  0  0
 75 76  2  0  0  0
 75 77  1  0  0  0
 77 74  1  0  0  0
 77 78  1  0  0  0
 74117  1  0  0  0
 74 70  1  0  0  0
117118  1  0  0  0
118119  1  0  0  0
 70 71  2  0  0  0
 70 72  1  0  0  0
 72 69  1  0  0  0
 72 73  1  0  0  0
 69120  1  0  0  0
 69 65  1  0  0  0
120121  1  0  0  0
121125  1  0  0  0
121122  2  0  0  0
122123  1  0  0  0
123124  2  0  0  0
124125  1  0  0  0
125126  1  0  0  0
 65 66  2  0  0  0
 65 67  1  0  0  0
 67  1  1  0  0  0
 67 68  1  0  0  0
  1  2  1  0  0  0
  1 10  1  0  0  0
  2  8  2  0  0  0
  2  3  1  0  0  0
  3  4  2  0  0  0
  4  5  1  0  0  0
  5  6  1  0  0  0
  5  7  2  0  0  0
  6  9  1  0  0  0
  7  8  1  0  0  0
 10 11  2  0  0  0
 10 12  1  0  0  0
 12 14  1  0  0  0
 12 13  1  0  0  0
 14 58  1  0  0  0
 14 15  1  0  0  0
 58 59  1  0  0  0
 59 60  1  0  0  0
 60 61  1  0  0  0
 61 62  1  0  0  0
 62 63  1  0  0  0
 62 64  1  0  0  0
 15 16  2  0  0  0
 15 17  1  0  0  0
 17 19  1  0  0  0
 17 18  1  0  0  0
 19 51  1  0  0  0
 19 20  1  0  0  0
 51 52  1  0  0  0
 52 53  1  0  0  0
 53 54  2  0  0  0
 53 55  1  0  0  0
 55 56  1  0  0  0
 55 57  1  0  0  0
 20 21  2  0  0  0
 20 22  1  0  0  0
 22 24  1  0  0  0
 22 23  1  0  0  0
 24 44  1  0  0  0
 24 25  1  0  0  0
 44 45  1  0  0  0
 45 49  1  0  0  0
 45 46  2  0  0  0
 46 47  1  0  0  0
 47 48  2  0  0  0
 48 49  1  0  0  0
 49 50  1  0  0  0
 25 26  2  0  0  0
 25 27  1  0  0  0
 27 29  1  0  0  0
 27 28  1  0  0  0
 29 41  1  0  0  0
 29 30  1  0  0  0
 41 42  1  0  0  0
 42 43  1  0  0  0
 30 31  2  0  0  0
 30 32  1  0  0  0
 32 36  1  0  0  0
 32 33  1  0  0  0
 33 34  1  0  0  0
 34 35  1  0  0  0
 35 36  1  0  0  0
 36 37  1  0  0  0
 37 38  1  0  0  0
 37 39  2  0  0  0
 38 40  1  0  0  0
 99100  1  0  0  0
 99101  1  0  0  0
100102  1  0  0  0
M  END
> <minimizedAffinity>
-8.01387

$$$$



126129  0  0  0  0  0  0  0  0999 V2000
    9.4516    1.5044   22.4669 C   0  0  0  0  0  0  0  0  0  0  0  0
   10.2189    2.0965   22.7133 C   0  0  0  0  0  0  0  0  0  0  0  0
   11.0978    1.9962   22.2470 C   0  0  0  0  0  0  0  0  0  0  0  0
   11.8650    2.5883   22.4935 C   0  0  0  0  0  0  0  0  0  0  0  0
   11.7534    3.2808   23.2062 C   0  0  0  0  0  0  0  0  0  0  0  0
   12.5206    3.8729   23.4526 O   0  0  0  0  0  0  0  0  0  0  0  0
   10.8745    3.3812   23.6725 C   0  0  0  0  0  0  0  0  0  0  0  0
   10.1072    2.7891   23.4261 C   0  0  0  0  0  0  0  0  0  0  0  0
   13.3442    3.7788   23.0157 H   0  0  0  0  0  0  0  0  0  0  0  0
    8.7583    1.8267   21.8224 C   0  0  0  0  0  0  0  0  0  0  0  0
    9.0332    2.3238   20.9995 O   0  0  0  0  0  0  0  0  0  0  0  0
    7.7900    1.6518   22.0008 N   0  0  0  0  0  0  0  0  0  0  0  0
    7.5193    1.1624   22.8110 H   0  0  0  0  0  0  0  0  0  0  0  0
    7.0966    1.9741   21.3563 C   0  0  0  0  0  0  0  0  0  0  0  0
    6.4610    2.6975   21.6259 C   0  0  0  0  0  0  0  0  0  0  0  0
    6.7091    3.6568   21.4913 O   0  0  0  0  0  0  0  0  0  0  0  0
    5.5774    2.4615   22.0302 N   0  0  0  0  0  0  0  0  0  0  0  0
    5.3332    1.5171   22.1628 H   0  0  0  0  0  0  0  0  0  0  0  0
    4.9418    3.1849   22.2998 C   0  0  0  0  0  0  0  0  0  0  0  0
    4.6775    3.2864   23.2589 C   0  0  0  0  0  0  0  0  0  0  0  0
    4.8125    4.1608   23.7249 O   0  0  0  0  0  0  0  0  0  0  0  0
    4.2784    2.5134   23.7521 N   0  0  0  0  0  0  0  0  0  0  0  0
    4.1455    1.6525   23.2934 H   0  0  0  0  0  0  0  0  0  0  0  0
    4.0141    2.6149   24.7112 C   0  0  0  0  0  0  0  0  0  0  0  0
    4.6433    2.3332   25.4356 C   0  0  0  0  0  0  0  0  0  0  0  0
    5.1149    1.4535   25.3741 O   0  0  0  0  0  0  0  0  0  0  0  0
    4.8008    2.9311   26.2215 N   0  0  0  0  0  0  0  0  0  0  0  0
    4.3365    3.7971   26.2820 H   0  0  0  0  0  0  0  0  0  0  0  0
    5.4299    2.6494   26.9460 C   0  0  0  0  0  0  0  0  0  0  0  0
    6.3281    3.0820   27.0243 C   0  0  0  0  0  0  0  0  0  0  0  0
    7.1561    2.5215   27.0084 O   0  0  0  0  0  0  0  0  0  0  0  0
    6.3983    4.0751   27.1186 N   0  0  0  0  0  0  0  0  0  0  0  0
    5.6333    4.7185   27.1448 C   0  0  0  0  0  0  0  0  0  0  0  0
    6.0081    5.6402   27.2456 C   0  0  0  0  0  0  0  0  0  0  0  0
    7.0047    5.5663   27.2816 C   0  0  0  0  0  0  0  0  0  0  0  0
    7.2459    4.5990   27.2031 C   0  0  0  0  0  0  0  0  0  0  0  0
    8.1719    4.2219   27.2083 C   0  0  0  0  0  0  0  0  0  0  0  0
    8.6560    4.0730   26.3460 O   0  0  0  0  0  0  0  0  0  0  0  0
    8.6141    3.9936   28.0757 O   0  0  0  0  0  0  0  0  0  0  0  0
    8.2418    4.2869   25.5332 H   0  0  0  0  0  0  0  0  0  0  0  0
    5.1609    1.9351   27.5921 C   0  0  0  0  0  0  0  0  0  0  0  0
    4.5703    2.1589   28.3674 S   0  0  0  0  0  0  0  0  0  0  0  0
    4.1330    3.4346   28.5432 H   0  0  0  0  0  0  0  0  0  0  0  0
    3.1208    2.9980   24.9459 C   0  0  0  0  0  0  0  0  0  0  0  0
    2.2972    2.4380   24.8557 C   0  0  0  0  0  0  0  0  0  0  0  0
    1.5138    2.6354   24.2663 C   0  0  0  0  0  0  0  0  0  0  0  0
    0.8449    1.9017   24.3854 N   0  0  0  0  0  0  0  0  0  0  0  0
    1.2148    1.2508   25.0484 C   0  0  0  0  0  0  0  0  0  0  0  0
    2.1124    1.5824   25.3391 N   0  0  0  0  0  0  0  0  0  0  0  0
    2.7094    1.1433   25.9873 H   0  0  0  0  0  0  0  0  0  0  0  0
    4.5704    3.8068   21.6104 C   0  0  0  0  0  0  0  0  0  0  0  0
    3.6546    3.6528   21.2395 C   0  0  0  0  0  0  0  0  0  0  0  0
    3.3380    4.1831   20.4531 C   0  0  0  0  0  0  0  0  0  0  0  0
    2.8754    5.0585   20.5938 O   0  0  0  0  0  0  0  0  0  0  0  0
    3.4839    3.8380   19.5259 N   0  0  0  0  0  0  0  0  0  0  0  0
    3.9393    2.9762   19.3874 H   0  0  0  0  0  0  0  0  0  0  0  0
    3.1721    4.3601   18.7516 H   0  0  0  0  0  0  0  0  0  0  0  0
    7.0389    1.5729   20.4421 C   0  0  0  0  0  0  0  0  0  0  0  0
    6.5069    0.7390   20.2947 C   0  0  0  0  0  0  0  0  0  0  0  0
    6.3428    0.4083   19.3654 C   0  0  0  0  0  0  0  0  0  0  0  0
    6.1549   -0.5607   19.2053 C   0  0  0  0  0  0  0  0  0  0  0  0
    5.9870   -0.8907   18.2763 N   0  0  0  0  0  0  0  0  0  0  0  0
    6.0073   -0.2388   17.4921 H   0  0  0  0  0  0  0  0  0  0  0  0
    5.7954   -1.8791   18.1131 H   0  0  0  0  0  0  0  0  0  0  0  0
    9.6316   -0.2124   22.3251 C   0  0  0  0  0  0  0  0  0  0  0  0
    9.9595   -0.1005   21.3870 O   0  0  0  0  0  0  0  0  0  0  0  0
    9.3777    0.5901   22.8651 N   0  0  0  0  0  0  0  0  0  0  0  0
    9.0549    0.4800   23.7886 H   0  0  0  0  0  0  0  0  0  0  0  0
    9.5577   -1.1267   22.7233 C   0  0  0  0  0  0  0  0  0  0  0  0
    7.9658   -1.7399   23.0231 C   0  0  0  0  0  0  0  0  0  0  0  0
    7.8571   -1.9344   22.0482 O   0  0  0  0  0  0  0  0  0  0  0  0
    8.8161   -1.3361   23.3606 N   0  0  0  0  0  0  0  0  0  0  0  0
    8.9232   -1.1446   24.3204 H   0  0  0  0  0  0  0  0  0  0  0  0
    7.2242   -1.9493   23.6604 C   0  0  0  0  0  0  0  0  0  0  0  0
    7.1645   -3.2732   24.7756 C   0  0  0  0  0  0  0  0  0  0  0  0
    7.5668   -2.6941   25.4846 O   0  0  0  0  0  0  0  0  0  0  0  0
    6.9932   -2.9008   23.8635 N   0  0  0  0  0  0  0  0  0  0  0  0
    6.5971   -3.4709   23.1654 H   0  0  0  0  0  0  0  0  0  0  0  0
    6.9335   -4.2247   24.9787 C   0  0  0  0  0  0  0  0  0  0  0  0
    7.1535   -4.9442   24.3200 C   0  0  0  0  0  0  0  0  0  0  0  0
    5.5320   -4.7677   25.8394 C   0  0  0  0  0  0  0  0  0  0  0  0
    5.0326   -4.8466   24.9766 O   0  0  0  0  0  0  0  0  0  0  0  0
    6.4824   -4.4567   25.8405 N   0  0  0  0  0  0  0  0  0  0  0  0
    6.9740   -4.3790   26.6899 H   0  0  0  0  0  0  0  0  0  0  0  0
    5.0808   -4.9997   26.7012 C   0  0  0  0  0  0  0  0  0  0  0  0
    4.6265   -3.6309   27.6604 C   0  0  0  0  0  0  0  0  0  0  0  0
    3.9011   -3.4140   27.0072 O   0  0  0  0  0  0  0  0  0  0  0  0
    5.2163   -4.4238   27.5074 N   0  0  0  0  0  0  0  0  0  0  0  0
    5.9305   -4.6374   28.1505 H   0  0  0  0  0  0  0  0  0  0  0  0
    4.7620   -3.0550   28.4666 C   0  0  0  0  0  0  0  0  0  0  0  0
    6.0996   -1.9554   28.4252 C   0  0  0  0  0  0  0  0  0  0  0  0
    5.5872   -1.3551   27.8112 O   0  0  0  0  0  0  0  0  0  0  0  0
    5.6870   -2.8053   28.7529 N   0  0  0  0  0  0  0  0  0  0  0  0
    6.1915   -3.3964   29.3575 H   0  0  0  0  0  0  0  0  0  0  0  0
    7.6389   -2.4031   29.0811 N   0  0  0  0  0  0  0  0  0  0  0  0
    7.0247   -1.7058   28.7116 C   0  0  0  0  0  0  0  0  0  0  0  0
    8.5824   -2.1485   29.3732 H   0  0  0  0  0  0  0  0  0  0  0  0
    7.3219   -3.3689   29.1659 H   0  0  0  0  0  0  0  0  0  0  0  0
    7.3355   -0.7590   28.6285 C   0  0  0  0  0  0  0  0  0  0  0  0
    7.6236   -0.4035   27.7394 O   0  0  0  0  0  0  0  0  0  0  0  0
    7.3581   -0.1676   29.4346 C   0  0  0  0  0  0  0  0  0  0  0  0
    7.6015   -0.9772   26.9574 H   0  0  0  0  0  0  0  0  0  0  0  0
    3.9725   -2.7287   28.9864 C   0  0  0  0  0  0  0  0  0  0  0  0
    3.7359   -3.1577   29.8582 C   0  0  0  0  0  0  0  0  0  0  0  0
    2.9008   -2.8882   30.3377 C   0  0  0  0  0  0  0  0  0  0  0  0
    2.3257   -3.5831   30.7694 O   0  0  0  0  0  0  0  0  0  0  0  0
    2.6408   -1.9238   30.3856 N   0  0  0  0  0  0  0  0  0  0  0  0
    3.2070   -1.2397   29.9606 H   0  0  0  0  0  0  0  0  0  0  0  0
    1.8186   -1.6585   30.8577 H   0  0  0  0  0  0  0  0  0  0  0  0
    4.4942   -5.8076   26.7568 C   0  0  0  0  0  0  0  0  0  0  0  0
    4.7504   -6.5718   27.3487 C   0  0  0  0  0  0  0  0  0  0  0  0
    4.0418   -7.1127   27.8018 C   0  0  0  0  0  0  0  0  0  0  0  0
    4.0599   -7.2289   28.7949 O   0  0  0  0  0  0  0  0  0  0  0  0
    3.3151   -7.5375   27.2618 N   0  0  0  0  0  0  0  0  0  0  0  0
    3.2973   -7.4231   26.2842 H   0  0  0  0  0  0  0  0  0  0  0  0
    2.6175   -8.0700   27.7080 H   0  0  0  0  0  0  0  0  0  0  0  0
    6.7137   -1.2072   24.0946 C   0  0  0  0  0  0  0  0  0  0  0  0
    6.1793   -0.5737   23.5350 O   0  0  0  0  0  0  0  0  0  0  0  0
    5.6841    0.1462   23.9563 H   0  0  0  0  0  0  0  0  0  0  0  0
   10.2254   -1.8317   22.4840 C   0  0  0  0  0  0  0  0  0  0  0  0
   11.0687   -1.9220   23.0138 C   0  0  0  0  0  0  0  0  0  0  0  0
   11.1509   -2.3306   23.9228 C   0  0  0  0  0  0  0  0  0  0  0  0
   12.1109   -2.2807   24.1984 N   0  0  0  0  0  0  0  0  0  0  0  0
   12.6220   -1.8414   23.4596 C   0  0  0  0  0  0  0  0  0  0  0  0
   11.9779   -1.6197   22.7276 N   0  0  0  0  0  0  0  0  0  0  0  0
   12.1999   -1.1809   21.8747 H   0  0  0  0  0  0  0  0  0  0  0  0
 95 96  1  0  0  0
 95 97  1  0  0  0
 95 98  1  0  0  0
 96 91  1  0  0  0
 96 99  1  0  0  0
 91 92  2  0  0  0
 91 93  1  0  0  0
 93 90  1  0  0  0
 93 94  1  0  0  0
 90103  1  0  0  0
 90 86  1  0  0  0
103104  1  0  0  0
104105  1  0  0  0
105106  2  0  0  0
105107  1  0  0  0
107108  1  0  0  0
107109  1  0  0  0
 86 87  2  0  0  0
 86 88  1  0  0  0
 88 85  1  0  0  0
 88 89  1  0  0  0
 85110  1  0  0  0
 85 81  1  0  0  0
110111  1  0  0  0
111112  1  0  0  0
112113  2  0  0  0
112114  1  0  0  0
114115  1  0  0  0
114116  1  0  0  0
 81 82  2  0  0  0
 81 83  1  0  0  0
 83 79  1  0  0  0
 83 84  1  0  0  0
 79 80  1  0  0  0
 79 75  1  0  0  0
 75 76  2  0  0  0
 75 77  1  0  0  0
 77 74  1  0  0  0
 77 78  1  0  0  0
 74117  1  0  0  0
 74 70  1  0  0  0
117118  1  0  0  0
118119  1  0  0  0
 70 71  2  0  0  0
 70 72  1  0  0  0
 72 69  1  0  0  0
 72 73  1  0  0  0
 69120  1  0  0  0
 69 65  1  0  0  0
120121  1  0  0  0
121125  1  0  0  0
121122  2  0  0  0
122123  1  0  0  0
123124  2  0  0  0
124125  1  0  0  0
125126  1  0  0  0
 65 66  2  0  0  0
 65 67  1  0  0  0
 67  1  1  0  0  0
 67 68  1  0  0  0
  1  2  1  0  0  0
  1 10  1  0  0  0
  2  8  2  0  0  0
  2  3  1  0  0  0
  3  4  2  0  0  0
  4  5  1  0  0  0
  5  6  1  0  0  0
  5  7  2  0  0  0
  6  9  1  0  0  0
  7  8  1  0  0  0
 10 11  2  0  0  0
 10 12  1  0  0  0
 12 14  1  0  0  0
 12 13  1  0  0  0
 14 58  1  0  0  0
 14 15  1  0  0  0
 58 59  1  0  0  0
 59 60  1  0  0  0
 60 61  1  0  0  0
 61 62  1  0  0  0
 62 63  1  0  0  0
 62 64  1  0  0  0
 15 16  2  0  0  0
 15 17  1  0  0  0
 17 19  1  0  0  0
 17 18  1  0  0  0
 19 51  1  0  0  0
 19 20  1  0  0  0
 51 52  1  0  0  0
 52 53  1  0  0  0
 53 54  2  0  0  0
 53 55  1  0  0  0
 55 56  1  0  0  0
 55 57  1  0  0  0
 20 21  2  0  0  0
 20 22  1  0  0  0
 22 24  1  0  0  0
 22 23  1  0  0  0
 24 44  1  0  0  0
 24 25  1  0  0  0
 44 45  1  0  0  0
 45 49  1  0  0  0
 45 46  2  0  0  0
 46 47  1  0  0  0
 47 48  2  0  0  0
 48 49  1  0  0  0
 49 50  1  0  0  0
 25 26  2  0  0  0
 25 27  1  0  0  0
 27 29  1  0  0  0
 27 28  1  0  0  0
 29 41  1  0  0  0
 29 30  1  0  0  0
 41 42  1  0  0  0
 42 43  1  0  0  0
 30 31  2  0  0  0
 30 32  1  0  0  0
 32 36  1  0  0  0
 32 33  1  0  0  0
 33 34  1  0  0  0
 34 35  1  0  0  0
 35 36  1  0  0  0
 36 37  1  0  0  0
 37 38  1  0  0  0
 37 39  2  0  0  0
 38 40  1  0  0  0
 99100  1  0  0  0
 99101  1  0  0  0
100102  1  0  0  0
M  END
> <minimizedAffinity>
-7.95920

$$$$



126129  0  0  0  0  0  0  0  0999 V2000
    9.5049    1.8271   22.7813 C   0  0  0  0  0  0  0  0  0  0  0  0
   10.3900    2.2709   22.9217 C   0  0  0  0  0  0  0  0  0  0  0  0
   10.4759    3.0174   23.5815 C   0  0  0  0  0  0  0  0  0  0  0  0
   11.3610    3.4612   23.7219 C   0  0  0  0  0  0  0  0  0  0  0  0
   12.1602    3.1584   23.2026 C   0  0  0  0  0  0  0  0  0  0  0  0
   13.0452    3.6021   23.3431 O   0  0  0  0  0  0  0  0  0  0  0  0
   12.0742    2.4118   22.5429 C   0  0  0  0  0  0  0  0  0  0  0  0
   11.1892    1.9681   22.4024 C   0  0  0  0  0  0  0  0  0  0  0  0
   13.1257    4.3016   23.9613 H   0  0  0  0  0  0  0  0  0  0  0  0
    8.7716    2.3134   22.3061 C   0  0  0  0  0  0  0  0  0  0  0  0
    8.9073    2.6283   21.3668 O   0  0  0  0  0  0  0  0  0  0  0  0
    7.9026    2.4847   22.7703 N   0  0  0  0  0  0  0  0  0  0  0  0
    7.7690    2.1746   23.6951 H   0  0  0  0  0  0  0  0  0  0  0  0
    7.1693    2.9710   22.2951 C   0  0  0  0  0  0  0  0  0  0  0  0
    6.4341    2.4578   21.8522 C   0  0  0  0  0  0  0  0  0  0  0  0
    6.0126    1.6821   22.3219 O   0  0  0  0  0  0  0  0  0  0  0  0
    6.1204    2.7203   20.9397 N   0  0  0  0  0  0  0  0  0  0  0  0
    6.5354    3.4840   20.4774 H   0  0  0  0  0  0  0  0  0  0  0  0
    5.3853    2.2072   20.4968 C   0  0  0  0  0  0  0  0  0  0  0  0
    4.4429    2.5375   20.5495 C   0  0  0  0  0  0  0  0  0  0  0  0
    3.7004    1.9955   20.1559 O   0  0  0  0  0  0  0  0  0  0  0  0
    4.2430    3.4099   20.9958 N   0  0  0  0  0  0  0  0  0  0  0  0
    4.9740    3.9434   21.3833 H   0  0  0  0  0  0  0  0  0  0  0  0
    3.3006    3.7402   21.0484 C   0  0  0  0  0  0  0  0  0  0  0  0
    2.9827    4.4474   20.4169 C   0  0  0  0  0  0  0  0  0  0  0  0
    3.4897    5.3050   20.3304 O   0  0  0  0  0  0  0  0  0  0  0  0
    2.1578    4.2970   19.8720 N   0  0  0  0  0  0  0  0  0  0  0  0
    1.6588    3.4527   19.9573 H   0  0  0  0  0  0  0  0  0  0  0  0
    1.8399    5.0042   19.2405 C   0  0  0  0  0  0  0  0  0  0  0  0
    1.0793    5.5998   19.4987 C   0  0  0  0  0  0  0  0  0  0  0  0
    1.2189    6.5876   19.5679 O   0  0  0  0  0  0  0  0  0  0  0  0
    0.1789    5.2075   19.6877 N   0  0  0  0  0  0  0  0  0  0  0  0
   -0.0601    4.2374   19.6458 C   0  0  0  0  0  0  0  0  0  0  0  0
   -1.0271    4.1470   19.8839 C   0  0  0  0  0  0  0  0  0  0  0  0
   -1.3856    5.0612   20.0729 C   0  0  0  0  0  0  0  0  0  0  0  0
   -0.6403    5.7166   19.9516 C   0  0  0  0  0  0  0  0  0  0  0  0
   -0.7031    6.7072   20.0730 C   0  0  0  0  0  0  0  0  0  0  0  0
   -0.9597    7.2901   19.3021 O   0  0  0  0  0  0  0  0  0  0  0  0
   -0.5093    7.1149   20.9654 O   0  0  0  0  0  0  0  0  0  0  0  0
   -1.1413    6.9081   18.4660 H   0  0  0  0  0  0  0  0  0  0  0  0
    2.2827    5.1158   18.3508 C   0  0  0  0  0  0  0  0  0  0  0  0
    2.0482    4.5041   17.5953 S   0  0  0  0  0  0  0  0  0  0  0  0
    1.1271    3.5202   17.7778 H   0  0  0  0  0  0  0  0  0  0  0  0
    2.6762    3.3633   21.7325 C   0  0  0  0  0  0  0  0  0  0  0  0
    2.6908    3.7129   22.6693 C   0  0  0  0  0  0  0  0  0  0  0  0
    3.1880    3.3119   23.4387 C   0  0  0  0  0  0  0  0  0  0  0  0
    3.0152    3.8760   24.2461 N   0  0  0  0  0  0  0  0  0  0  0  0
    2.4112    4.6258   23.9757 C   0  0  0  0  0  0  0  0  0  0  0  0
    2.2108    4.5250   23.0011 N   0  0  0  0  0  0  0  0  0  0  0  0
    1.6408    5.1207   22.4630 H   0  0  0  0  0  0  0  0  0  0  0  0
    5.5925    1.3637   20.0013 C   0  0  0  0  0  0  0  0  0  0  0  0
    6.1301    1.3979   19.1588 C   0  0  0  0  0  0  0  0  0  0  0  0
    6.4592    0.5511   18.7409 C   0  0  0  0  0  0  0  0  0  0  0  0
    5.8177   -0.0593   18.2762 O   0  0  0  0  0  0  0  0  0  0  0  0
    7.4297    0.3147   18.7877 N   0  0  0  0  0  0  0  0  0  0  0  0
    8.0612    0.9157   19.2453 H   0  0  0  0  0  0  0  0  0  0  0  0
    7.7537   -0.5190   18.3763 H   0  0  0  0  0  0  0  0  0  0  0  0
    7.1711    3.9705   22.2629 C   0  0  0  0  0  0  0  0  0  0  0  0
    6.7402    4.4952   22.9971 C   0  0  0  0  0  0  0  0  0  0  0  0
    6.6924    5.4923   22.9374 C   0  0  0  0  0  0  0  0  0  0  0  0
    5.8233    5.9614   23.0941 C   0  0  0  0  0  0  0  0  0  0  0  0
    5.6609    6.4378   23.9582 N   0  0  0  0  0  0  0  0  0  0  0  0
    6.3819    6.4452   24.6798 H   0  0  0  0  0  0  0  0  0  0  0  0
    4.7745    6.9163   24.1181 H   0  0  0  0  0  0  0  0  0  0  0  0
    9.2646    0.1407   22.4680 C   0  0  0  0  0  0  0  0  0  0  0  0
    9.3277    0.3143   21.4851 O   0  0  0  0  0  0  0  0  0  0  0  0
    9.3532    0.8971   23.1160 N   0  0  0  0  0  0  0  0  0  0  0  0
    9.2910    0.7262   24.0835 H   0  0  0  0  0  0  0  0  0  0  0  0
    9.1128   -0.7893   22.8027 C   0  0  0  0  0  0  0  0  0  0  0  0
    7.5965   -1.3758   23.4000 C   0  0  0  0  0  0  0  0  0  0  0  0
    7.3333   -1.6403   22.4722 O   0  0  0  0  0  0  0  0  0  0  0  0
    8.4862   -0.9503   23.5652 N   0  0  0  0  0  0  0  0  0  0  0  0
    8.7453   -0.6898   24.4786 H   0  0  0  0  0  0  0  0  0  0  0  0
    6.9699   -1.5367   24.1625 C   0  0  0  0  0  0  0  0  0  0  0  0
    6.7976   -2.7284   25.4076 C   0  0  0  0  0  0  0  0  0  0  0  0
    7.0604   -2.0497   26.0934 O   0  0  0  0  0  0  0  0  0  0  0  0
    6.7524   -2.4719   24.4421 N   0  0  0  0  0  0  0  0  0  0  0  0
    6.4937   -3.1400   23.7669 H   0  0  0  0  0  0  0  0  0  0  0  0
    6.5802   -3.6635   25.6872 C   0  0  0  0  0  0  0  0  0  0  0  0
    6.9239   -4.0181   26.5567 C   0  0  0  0  0  0  0  0  0  0  0  0
    6.0963   -5.2393   25.1557 C   0  0  0  0  0  0  0  0  0  0  0  0
    6.7348   -5.6541   25.8040 O   0  0  0  0  0  0  0  0  0  0  0  0
    6.0190   -4.2441   25.0973 N   0  0  0  0  0  0  0  0  0  0  0  0
    5.3903   -3.8358   24.4591 H   0  0  0  0  0  0  0  0  0  0  0  0
    5.5351   -5.8200   24.5658 C   0  0  0  0  0  0  0  0  0  0  0  0
    3.9367   -6.3579   24.9604 C   0  0  0  0  0  0  0  0  0  0  0  0
    3.5563   -5.5304   24.5474 O   0  0  0  0  0  0  0  0  0  0  0  0
    4.9261   -6.5027   24.9696 N   0  0  0  0  0  0  0  0  0  0  0  0
    5.3006   -7.3173   25.3761 H   0  0  0  0  0  0  0  0  0  0  0  0
    3.3276   -7.0406   25.3642 C   0  0  0  0  0  0  0  0  0  0  0  0
    3.2115   -6.8534   27.0821 C   0  0  0  0  0  0  0  0  0  0  0  0
    2.7436   -5.9788   26.9553 O   0  0  0  0  0  0  0  0  0  0  0  0
    3.5035   -7.3843   26.2866 N   0  0  0  0  0  0  0  0  0  0  0  0
    3.9642   -8.2454   26.4115 H   0  0  0  0  0  0  0  0  0  0  0  0
    2.7674   -7.8653   28.4159 N   0  0  0  0  0  0  0  0  0  0  0  0
    3.3875   -7.1972   28.0046 C   0  0  0  0  0  0  0  0  0  0  0  0
    2.9468   -8.2160   29.3567 H   0  0  0  0  0  0  0  0  0  0  0  0
    1.9555   -8.1962   27.8944 H   0  0  0  0  0  0  0  0  0  0  0  0
    4.1834   -6.8729   28.5158 C   0  0  0  0  0  0  0  0  0  0  0  0
    5.1002   -6.9712   28.1287 O   0  0  0  0  0  0  0  0  0  0  0  0
    4.0625   -6.4503   29.4140 C   0  0  0  0  0  0  0  0  0  0  0  0
    5.2174   -7.3811   27.2574 H   0  0  0  0  0  0  0  0  0  0  0  0
    2.5427   -7.3795   24.8455 C   0  0  0  0  0  0  0  0  0  0  0  0
    2.5296   -8.3247   24.5191 C   0  0  0  0  0  0  0  0  0  0  0  0
    1.7216   -8.6802   24.0492 C   0  0  0  0  0  0  0  0  0  0  0  0
    1.5647   -8.4581   23.0869 O   0  0  0  0  0  0  0  0  0  0  0  0
    1.0706   -9.2578   24.5416 N   0  0  0  0  0  0  0  0  0  0  0  0
    1.2251   -9.4765   25.4890 H   0  0  0  0  0  0  0  0  0  0  0  0
    0.2752   -9.6078   24.0790 H   0  0  0  0  0  0  0  0  0  0  0  0
    5.5829   -5.7179   23.5722 C   0  0  0  0  0  0  0  0  0  0  0  0
    6.1495   -6.3404   23.0323 C   0  0  0  0  0  0  0  0  0  0  0  0
    6.2634   -6.1884   22.0506 C   0  0  0  0  0  0  0  0  0  0  0  0
    5.4602   -6.0768   21.4654 O   0  0  0  0  0  0  0  0  0  0  0  0
    7.1805   -6.1481   21.6538 N   0  0  0  0  0  0  0  0  0  0  0  0
    7.9713   -6.2580   22.2299 H   0  0  0  0  0  0  0  0  0  0  0  0
    7.2925   -5.9985   20.6872 H   0  0  0  0  0  0  0  0  0  0  0  0
    6.5607   -0.7625   24.6453 C   0  0  0  0  0  0  0  0  0  0  0  0
    5.8317   -0.2321   24.2127 O   0  0  0  0  0  0  0  0  0  0  0  0
    5.4348    0.5189   24.6812 H   0  0  0  0  0  0  0  0  0  0  0  0
    9.5877   -1.5584   22.3748 C   0  0  0  0  0  0  0  0  0  0  0  0
   10.5148   -1.7970   22.6639 C   0  0  0  0  0  0  0  0  0  0  0  0
   10.7689   -2.2178   23.5347 C   0  0  0  0  0  0  0  0  0  0  0  0
   11.7618   -2.3376   23.5421 N   0  0  0  0  0  0  0  0  0  0  0  0
   12.1212   -1.9906   22.6757 C   0  0  0  0  0  0  0  0  0  0  0  0
   11.3505   -1.6566   22.1331 N   0  0  0  0  0  0  0  0  0  0  0  0
   11.4049   -1.2592   21.2339 H   0  0  0  0  0  0  0  0  0  0  0  0
 95 96  1  0  0  0
 95 97  1  0  0  0
 95 98  1  0  0  0
 96 91  1  0  0  0
 96 99  1  0  0  0
 91 92  2  0  0  0
 91 93  1  0  0  0
 93 90  1  0  0  0
 93 94  1  0  0  0
 90103  1  0  0  0
 90 86  1  0  0  0
103104  1  0  0  0
104105  1  0  0  0
105106  2  0  0  0
105107  1  0  0  0
107108  1  0  0  0
107109  1  0  0  0
 86 87  2  0  0  0
 86 88  1  0  0  0
 88 85  1  0  0  0
 88 89  1  0  0  0
 85110  1  0  0  0
 85 81  1  0  0  0
110111  1  0  0  0
111112  1  0  0  0
112113  2  0  0  0
112114  1  0  0  0
114115  1  0  0  0
114116  1  0  0  0
 81 82  2  0  0  0
 81 83  1  0  0  0
 83 79  1  0  0  0
 83 84  1  0  0  0
 79 80  1  0  0  0
 79 75  1  0  0  0
 75 76  2  0  0  0
 75 77  1  0  0  0
 77 74  1  0  0  0
 77 78  1  0  0  0
 74117  1  0  0  0
 74 70  1  0  0  0
117118  1  0  0  0
118119  1  0  0  0
 70 71  2  0  0  0
 70 72  1  0  0  0
 72 69  1  0  0  0
 72 73  1  0  0  0
 69120  1  0  0  0
 69 65  1  0  0  0
120121  1  0  0  0
121125  1  0  0  0
121122  2  0  0  0
122123  1  0  0  0
123124  2  0  0  0
124125  1  0  0  0
125126  1  0  0  0
 65 66  2  0  0  0
 65 67  1  0  0  0
 67  1  1  0  0  0
 67 68  1  0  0  0
  1  2  1  0  0  0
  1 10  1  0  0  0
  2  8  2  0  0  0
  2  3  1  0  0  0
  3  4  2  0  0  0
  4  5  1  0  0  0
  5  6  1  0  0  0
  5  7  2  0  0  0
  6  9  1  0  0  0
  7  8  1  0  0  0
 10 11  2  0  0  0
 10 12  1  0  0  0
 12 14  1  0  0  0
 12 13  1  0  0  0
 14 58  1  0  0  0
 14 15  1  0  0  0
 58 59  1  0  0  0
 59 60  1  0  0  0
 60 61  1  0  0  0
 61 62  1  0  0  0
 62 63  1  0  0  0
 62 64  1  0  0  0
 15 16  2  0  0  0
 15 17  1  0  0  0
 17 19  1  0  0  0
 17 18  1  0  0  0
 19 51  1  0  0  0
 19 20  1  0  0  0
 51 52  1  0  0  0
 52 53  1  0  0  0
 53 54  2  0  0  0
 53 55  1  0  0  0
 55 56  1  0  0  0
 55 57  1  0  0  0
 20 21  2  0  0  0
 20 22  1  0  0  0
 22 24  1  0  0  0
 22 23  1  0  0  0
 24 44  1  0  0  0
 24 25  1  0  0  0
 44 45  1  0  0  0
 45 49  1  0  0  0
 45 46  2  0  0  0
 46 47  1  0  0  0
 47 48  2  0  0  0
 48 49  1  0  0  0
 49 50  1  0  0  0
 25 26  2  0  0  0
 25 27  1  0  0  0
 27 29  1  0  0  0
 27 28  1  0  0  0
 29 41  1  0  0  0
 29 30  1  0  0  0
 41 42  1  0  0  0
 42 43  1  0  0  0
 30 31  2  0  0  0
 30 32  1  0  0  0
 32 36  1  0  0  0
 32 33  1  0  0  0
 33 34  1  0  0  0
 34 35  1  0  0  0
 35 36  1  0  0  0
 36 37  1  0  0  0
 37 38  1  0  0  0
 37 39  2  0  0  0
 38 40  1  0  0  0
 99100  1  0  0  0
 99101  1  0  0  0
100102  1  0  0  0
M  END
> <minimizedAffinity>
-7.87282

$$$$



126129  0  0  0  0  0  0  0  0999 V2000
    8.4168    1.6534   23.0686 C   0  0  0  0  0  0  0  0  0  0  0  0
    9.1454    2.3067   22.8627 C   0  0  0  0  0  0  0  0  0  0  0  0
    9.5159    2.8874   23.5876 C   0  0  0  0  0  0  0  0  0  0  0  0
   10.2445    3.5407   23.3816 C   0  0  0  0  0  0  0  0  0  0  0  0
   10.6025    3.6133   22.4508 C   0  0  0  0  0  0  0  0  0  0  0  0
   11.3311    4.2666   22.2448 O   0  0  0  0  0  0  0  0  0  0  0  0
   10.2320    3.0326   21.7258 C   0  0  0  0  0  0  0  0  0  0  0  0
    9.5035    2.3793   21.9318 C   0  0  0  0  0  0  0  0  0  0  0  0
   11.6782    4.8107   22.9241 H   0  0  0  0  0  0  0  0  0  0  0  0
    7.4600    1.9398   23.0200 C   0  0  0  0  0  0  0  0  0  0  0  0
    6.8023    1.6028   23.6937 O   0  0  0  0  0  0  0  0  0  0  0  0
    7.1609    2.5634   22.2977 N   0  0  0  0  0  0  0  0  0  0  0  0
    7.8084    2.8952   21.6345 H   0  0  0  0  0  0  0  0  0  0  0  0
    6.2039    2.8499   22.2490 C   0  0  0  0  0  0  0  0  0  0  0  0
    5.5670    2.3659   21.6490 C   0  0  0  0  0  0  0  0  0  0  0  0
    4.8104    1.8426   22.0409 O   0  0  0  0  0  0  0  0  0  0  0  0
    5.6867    2.4053   20.6570 N   0  0  0  0  0  0  0  0  0  0  0  0
    6.4316    2.9205   20.2711 H   0  0  0  0  0  0  0  0  0  0  0  0
    5.0498    1.9214   20.0569 C   0  0  0  0  0  0  0  0  0  0  0  0
    4.1903    2.3550   19.7863 C   0  0  0  0  0  0  0  0  0  0  0  0
    3.3504    1.8142   19.7397 O   0  0  0  0  0  0  0  0  0  0  0  0
    4.1706    3.3294   19.5624 N   0  0  0  0  0  0  0  0  0  0  0  0
    4.9974    3.8618   19.6083 H   0  0  0  0  0  0  0  0  0  0  0  0
    3.3111    3.7631   19.2919 C   0  0  0  0  0  0  0  0  0  0  0  0
    2.7943    4.3051   19.9545 C   0  0  0  0  0  0  0  0  0  0  0  0
    3.2158    5.1031   20.3850 O   0  0  0  0  0  0  0  0  0  0  0  0
    1.8559    4.0490   20.1866 N   0  0  0  0  0  0  0  0  0  0  0  0
    1.4409    3.2633   19.7628 H   0  0  0  0  0  0  0  0  0  0  0  0
    1.3391    4.5910   20.8493 C   0  0  0  0  0  0  0  0  0  0  0  0
    0.8563    4.1374   21.5984 C   0  0  0  0  0  0  0  0  0  0  0  0
   -0.0239    3.6938   21.4299 O   0  0  0  0  0  0  0  0  0  0  0  0
    1.2538    4.1274   22.5160 N   0  0  0  0  0  0  0  0  0  0  0  0
    2.1241    4.5406   22.7840 C   0  0  0  0  0  0  0  0  0  0  0  0
    2.2589    4.3710   23.7603 C   0  0  0  0  0  0  0  0  0  0  0  0
    1.4720    3.8530   24.0955 C   0  0  0  0  0  0  0  0  0  0  0  0
    0.8508    3.7024   23.3265 C   0  0  0  0  0  0  0  0  0  0  0  0
   -0.0204    3.2129   23.3618 C   0  0  0  0  0  0  0  0  0  0  0  0
   -0.8695    3.7146   23.5268 O   0  0  0  0  0  0  0  0  0  0  0  0
   -0.0425    2.2215   23.2320 O   0  0  0  0  0  0  0  0  0  0  0  0
   -0.8488    4.6434   23.6484 H   0  0  0  0  0  0  0  0  0  0  0  0
    1.3050    5.5868   20.7628 C   0  0  0  0  0  0  0  0  0  0  0  0
    0.5282    6.0229   20.3086 S   0  0  0  0  0  0  0  0  0  0  0  0
   -0.4819    5.2620   19.8083 H   0  0  0  0  0  0  0  0  0  0  0  0
    2.9684    3.6546   18.3587 C   0  0  0  0  0  0  0  0  0  0  0  0
    3.2199    4.3175   17.6535 C   0  0  0  0  0  0  0  0  0  0  0  0
    2.6266    5.0295   17.2776 C   0  0  0  0  0  0  0  0  0  0  0  0
    3.1488    5.5368   16.5922 N   0  0  0  0  0  0  0  0  0  0  0  0
    4.0649    5.1386   16.5444 C   0  0  0  0  0  0  0  0  0  0  0  0
    4.1087    4.3850   17.2004 N   0  0  0  0  0  0  0  0  0  0  0  0
    4.8899    3.8104   17.3702 H   0  0  0  0  0  0  0  0  0  0  0  0
    5.2723    1.0038   19.7274 C   0  0  0  0  0  0  0  0  0  0  0  0
    5.9460    0.8842   18.9981 C   0  0  0  0  0  0  0  0  0  0  0  0
    6.0094    0.0114   18.5141 C   0  0  0  0  0  0  0  0  0  0  0  0
    6.3743   -0.7940   18.9813 O   0  0  0  0  0  0  0  0  0  0  0  0
    5.7078   -0.0560   17.5631 N   0  0  0  0  0  0  0  0  0  0  0  0
    5.3485    0.7370   17.1033 H   0  0  0  0  0  0  0  0  0  0  0  0
    5.7701   -0.9152   17.0866 H   0  0  0  0  0  0  0  0  0  0  0  0
    5.8841    3.6203   22.8005 C   0  0  0  0  0  0  0  0  0  0  0  0
    6.0936    4.5571   22.5200 C   0  0  0  0  0  0  0  0  0  0  0  0
    5.7220    5.3286   23.0363 C   0  0  0  0  0  0  0  0  0  0  0  0
    5.8348    6.2609   22.6928 C   0  0  0  0  0  0  0  0  0  0  0  0
    5.0548    6.7460   22.2976 N   0  0  0  0  0  0  0  0  0  0  0  0
    4.1440    6.2898   22.2448 H   0  0  0  0  0  0  0  0  0  0  0  0
    5.1699    7.6970   21.9472 H   0  0  0  0  0  0  0  0  0  0  0  0
    8.6553   -0.0044   22.6273 C   0  0  0  0  0  0  0  0  0  0  0  0
    8.4371    0.2172   21.6768 O   0  0  0  0  0  0  0  0  0  0  0  0
    8.6451    0.7137   23.3231 N   0  0  0  0  0  0  0  0  0  0  0  0
    8.8599    0.4955   24.2588 H   0  0  0  0  0  0  0  0  0  0  0  0
    8.8836   -0.9442   22.8818 C   0  0  0  0  0  0  0  0  0  0  0  0
    7.6886   -1.8548   23.7435 C   0  0  0  0  0  0  0  0  0  0  0  0
    7.1836   -1.9977   22.8923 O   0  0  0  0  0  0  0  0  0  0  0  0
    8.5386   -1.3281   23.7383 N   0  0  0  0  0  0  0  0  0  0  0  0
    9.0357   -1.1874   24.5763 H   0  0  0  0  0  0  0  0  0  0  0  0
    7.3435   -2.2388   24.6000 C   0  0  0  0  0  0  0  0  0  0  0  0
    6.4102   -1.3940   25.7896 C   0  0  0  0  0  0  0  0  0  0  0  0
    5.5681   -1.6882   25.3378 O   0  0  0  0  0  0  0  0  0  0  0  0
    7.2980   -1.6693   25.4207 N   0  0  0  0  0  0  0  0  0  0  0  0
    8.1271   -1.3796   25.8655 H   0  0  0  0  0  0  0  0  0  0  0  0
    6.3647   -0.8245   26.6103 C   0  0  0  0  0  0  0  0  0  0  0  0
    6.6495   -1.1967   27.4937 C   0  0  0  0  0  0  0  0  0  0  0  0
    6.4813    0.8400   27.0747 C   0  0  0  0  0  0  0  0  0  0  0  0
    7.2588    0.6211   27.6643 O   0  0  0  0  0  0  0  0  0  0  0  0
    6.0343    0.1173   26.5477 N   0  0  0  0  0  0  0  0  0  0  0  0
    5.2689    0.3328   25.9673 H   0  0  0  0  0  0  0  0  0  0  0  0
    6.1509    1.7819   27.0122 C   0  0  0  0  0  0  0  0  0  0  0  0
    4.5526    2.1760   27.5508 C   0  0  0  0  0  0  0  0  0  0  0  0
    4.8795    2.2107   28.4952 O   0  0  0  0  0  0  0  0  0  0  0  0
    5.1883    1.9616   26.8093 N   0  0  0  0  0  0  0  0  0  0  0  0
    4.8666    1.9274   25.8795 H   0  0  0  0  0  0  0  0  0  0  0  0
    3.5901    2.3557   27.3479 C   0  0  0  0  0  0  0  0  0  0  0  0
    2.5159    1.0450   26.9900 C   0  0  0  0  0  0  0  0  0  0  0  0
    2.4100    0.8646   27.9678 O   0  0  0  0  0  0  0  0  0  0  0  0
    3.1059    1.7906   26.6800 N   0  0  0  0  0  0  0  0  0  0  0  0
    3.2101    1.9682   25.7173 H   0  0  0  0  0  0  0  0  0  0  0  0
    1.4003    0.9037   25.6725 N   0  0  0  0  0  0  0  0  0  0  0  0
    2.0317    0.4798   26.3219 C   0  0  0  0  0  0  0  0  0  0  0  0
    0.9065    0.3273   24.9912 H   0  0  0  0  0  0  0  0  0  0  0  0
    1.2503    1.9124   25.6914 H   0  0  0  0  0  0  0  0  0  0  0  0
    2.1788   -0.5091   26.3034 C   0  0  0  0  0  0  0  0  0  0  0  0
    3.0700   -0.8771   26.0383 O   0  0  0  0  0  0  0  0  0  0  0  0
    1.4347   -1.1300   26.5501 C   0  0  0  0  0  0  0  0  0  0  0  0
    3.7917   -0.2748   25.7990 H   0  0  0  0  0  0  0  0  0  0  0  0
    3.1117    3.1006   27.8130 C   0  0  0  0  0  0  0  0  0  0  0  0
    3.0368    3.9967   27.3756 C   0  0  0  0  0  0  0  0  0  0  0  0
    2.5277    4.7313   27.8245 C   0  0  0  0  0  0  0  0  0  0  0  0
    2.9825    5.3175   28.4949 O   0  0  0  0  0  0  0  0  0  0  0  0
    1.5639    4.8795   27.6028 N   0  0  0  0  0  0  0  0  0  0  0  0
    1.1163    4.3023   26.9428 H   0  0  0  0  0  0  0  0  0  0  0  0
    1.0628    5.6025   28.0446 H   0  0  0  0  0  0  0  0  0  0  0  0
    6.7830    2.5439   27.1525 C   0  0  0  0  0  0  0  0  0  0  0  0
    7.0729    3.1026   26.3755 C   0  0  0  0  0  0  0  0  0  0  0  0
    7.6130    3.9301   26.5285 C   0  0  0  0  0  0  0  0  0  0  0  0
    8.5494    3.8596   26.8723 O   0  0  0  0  0  0  0  0  0  0  0  0
    7.2166    4.8283   26.3379 N   0  0  0  0  0  0  0  0  0  0  0  0
    6.2947    4.8977   25.9995 H   0  0  0  0  0  0  0  0  0  0  0  0
    7.7483    5.6430   26.4886 H   0  0  0  0  0  0  0  0  0  0  0  0
    7.0441   -3.1922   24.6357 C   0  0  0  0  0  0  0  0  0  0  0  0
    7.7042   -3.9294   24.4916 O   0  0  0  0  0  0  0  0  0  0  0  0
    7.4137   -4.8542   24.5263 H   0  0  0  0  0  0  0  0  0  0  0  0
    9.4570   -1.5000   22.2798 C   0  0  0  0  0  0  0  0  0  0  0  0
   10.4354   -1.5911   22.4652 C   0  0  0  0  0  0  0  0  0  0  0  0
   10.8484   -2.1612   23.1754 C   0  0  0  0  0  0  0  0  0  0  0  0
   11.8409   -2.0506   23.1221 N   0  0  0  0  0  0  0  0  0  0  0  0
   12.0412   -1.4122   22.3789 C   0  0  0  0  0  0  0  0  0  0  0  0
   11.1725   -1.1282   21.9730 N   0  0  0  0  0  0  0  0  0  0  0  0
   11.0624   -0.5027   21.2207 H   0  0  0  0  0  0  0  0  0  0  0  0
 95 96  1  0  0  0
 95 97  1  0  0  0
 95 98  1  0  0  0
 96 91  1  0  0  0
 96 99  1  0  0  0
 91 92  2  0  0  0
 91 93  1  0  0  0
 93 90  1  0  0  0
 93 94  1  0  0  0
 90103  1  0  0  0
 90 86  1  0  0  0
103104  1  0  0  0
104105  1  0  0  0
105106  2  0  0  0
105107  1  0  0  0
107108  1  0  0  0
107109  1  0  0  0
 86 87  2  0  0  0
 86 88  1  0  0  0
 88 85  1  0  0  0
 88 89  1  0  0  0
 85110  1  0  0  0
 85 81  1  0  0  0
110111  1  0  0  0
111112  1  0  0  0
112113  2  0  0  0
112114  1  0  0  0
114115  1  0  0  0
114116  1  0  0  0
 81 82  2  0  0  0
 81 83  1  0  0  0
 83 79  1  0  0  0
 83 84  1  0  0  0
 79 80  1  0  0  0
 79 75  1  0  0  0
 75 76  2  0  0  0
 75 77  1  0  0  0
 77 74  1  0  0  0
 77 78  1  0  0  0
 74117  1  0  0  0
 74 70  1  0  0  0
117118  1  0  0  0
118119  1  0  0  0
 70 71  2  0  0  0
 70 72  1  0  0  0
 72 69  1  0  0  0
 72 73  1  0  0  0
 69120  1  0  0  0
 69 65  1  0  0  0
120121  1  0  0  0
121125  1  0  0  0
121122  2  0  0  0
122123  1  0  0  0
123124  2  0  0  0
124125  1  0  0  0
125126  1  0  0  0
 65 66  2  0  0  0
 65 67  1  0  0  0
 67  1  1  0  0  0
 67 68  1  0  0  0
  1  2  1  0  0  0
  1 10  1  0  0  0
  2  8  2  0  0  0
  2  3  1  0  0  0
  3  4  2  0  0  0
  4  5  1  0  0  0
  5  6  1  0  0  0
  5  7  2  0  0  0
  6  9  1  0  0  0
  7  8  1  0  0  0
 10 11  2  0  0  0
 10 12  1  0  0  0
 12 14  1  0  0  0
 12 13  1  0  0  0
 14 58  1  0  0  0
 14 15  1  0  0  0
 58 59  1  0  0  0
 59 60  1  0  0  0
 60 61  1  0  0  0
 61 62  1  0  0  0
 62 63  1  0  0  0
 62 64  1  0  0  0
 15 16  2  0  0  0
 15 17  1  0  0  0
 17 19  1  0  0  0
 17 18  1  0  0  0
 19 51  1  0  0  0
 19 20  1  0  0  0
 51 52  1  0  0  0
 52 53  1  0  0  0
 53 54  2  0  0  0
 53 55  1  0  0  0
 55 56  1  0  0  0
 55 57  1  0  0  0
 20 21  2  0  0  0
 20 22  1  0  0  0
 22 24  1  0  0  0
 22 23  1  0  0  0
 24 44  1  0  0  0
 24 25  1  0  0  0
 44 45  1  0  0  0
 45 49  1  0  0  0
 45 46  2  0  0  0
 46 47  1  0  0  0
 47 48  2  0  0  0
 48 49  1  0  0  0
 49 50  1  0  0  0
 25 26  2  0  0  0
 25 27  1  0  0  0
 27 29  1  0  0  0
 27 28  1  0  0  0
 29 41  1  0  0  0
 29 30  1  0  0  0
 41 42  1  0  0  0
 42 43  1  0  0  0
 30 31  2  0  0  0
 30 32  1  0  0  0
 32 36  1  0  0  0
 32 33  1  0  0  0
 33 34  1  0  0  0
 34 35  1  0  0  0
 35 36  1  0  0  0
 36 37  1  0  0  0
 37 38  1  0  0  0
 37 39  2  0  0  0
 38 40  1  0  0  0
 99100  1  0  0  0
 99101  1  0  0  0
100102  1  0  0  0
M  END
> <minimizedAffinity>
-7.83468

$$$$



126129  0  0  0  0  0  0  0  0999 V2000
    9.5052    1.6064   22.4761 C   0  0  0  0  0  0  0  0  0  0  0  0
   10.2560    2.2262   22.7043 C   0  0  0  0  0  0  0  0  0  0  0  0
   11.0112    2.3549   22.0616 C   0  0  0  0  0  0  0  0  0  0  0  0
   11.7620    2.9748   22.2899 C   0  0  0  0  0  0  0  0  0  0  0  0
   11.7576    3.4659   23.1609 C   0  0  0  0  0  0  0  0  0  0  0  0
   12.5084    4.0858   23.3891 O   0  0  0  0  0  0  0  0  0  0  0  0
   11.0024    3.3373   23.8037 C   0  0  0  0  0  0  0  0  0  0  0  0
   10.2516    2.7175   23.5754 C   0  0  0  0  0  0  0  0  0  0  0  0
   13.2160    4.2063   22.7868 H   0  0  0  0  0  0  0  0  0  0  0  0
    8.7531    1.9235   21.8985 C   0  0  0  0  0  0  0  0  0  0  0  0
    8.9349    2.5483   21.1391 O   0  0  0  0  0  0  0  0  0  0  0  0
    7.8191    1.6159   22.0802 N   0  0  0  0  0  0  0  0  0  0  0  0
    7.6401    1.0008   22.8278 H   0  0  0  0  0  0  0  0  0  0  0  0
    7.0669    1.9331   21.5025 C   0  0  0  0  0  0  0  0  0  0  0  0
    6.3627    2.5325   21.8830 C   0  0  0  0  0  0  0  0  0  0  0  0
    5.8805    2.2698   22.7187 O   0  0  0  0  0  0  0  0  0  0  0  0
    6.1407    3.3948   21.4277 N   0  0  0  0  0  0  0  0  0  0  0  0
    6.6154    3.6534   20.6050 H   0  0  0  0  0  0  0  0  0  0  0  0
    5.4366    3.9943   21.8082 C   0  0  0  0  0  0  0  0  0  0  0  0
    5.6225    4.5198   22.6384 C   0  0  0  0  0  0  0  0  0  0  0  0
    4.9977    4.4622   23.4170 O   0  0  0  0  0  0  0  0  0  0  0  0
    6.4333    5.1030   22.6899 N   0  0  0  0  0  0  0  0  0  0  0  0
    7.0484    5.1597   21.9233 H   0  0  0  0  0  0  0  0  0  0  0  0
    6.6192    5.6285   23.5201 C   0  0  0  0  0  0  0  0  0  0  0  0
    7.1957    5.2402   24.2390 C   0  0  0  0  0  0  0  0  0  0  0  0
    8.1161    4.9156   24.0210 O   0  0  0  0  0  0  0  0  0  0  0  0
    6.8519    5.1765   25.1759 N   0  0  0  0  0  0  0  0  0  0  0  0
    5.9458    5.4961   25.3904 H   0  0  0  0  0  0  0  0  0  0  0  0
    7.4284    4.7882   25.8948 C   0  0  0  0  0  0  0  0  0  0  0  0
    7.2976    3.8395   26.1828 C   0  0  0  0  0  0  0  0  0  0  0  0
    8.0264    3.1694   26.0425 O   0  0  0  0  0  0  0  0  0  0  0  0
    6.4379    3.5611   26.6111 N   0  0  0  0  0  0  0  0  0  0  0  0
    5.6533    4.1535   26.7938 C   0  0  0  0  0  0  0  0  0  0  0  0
    4.9424    3.5998   27.2275 C   0  0  0  0  0  0  0  0  0  0  0  0
    5.2877    2.6652   27.3128 C   0  0  0  0  0  0  0  0  0  0  0  0
    6.2120    2.6413   26.9319 C   0  0  0  0  0  0  0  0  0  0  0  0
    6.8059    1.8385   26.8807 C   0  0  0  0  0  0  0  0  0  0  0  0
    7.3802    1.5908   27.6610 O   0  0  0  0  0  0  0  0  0  0  0  0
    6.8257    1.2833   26.0491 O   0  0  0  0  0  0  0  0  0  0  0  0
    7.3617    2.1110   28.4401 H   0  0  0  0  0  0  0  0  0  0  0  0
    8.1359    5.3485   26.3257 C   0  0  0  0  0  0  0  0  0  0  0  0
    7.8806    6.0583   26.9822 S   0  0  0  0  0  0  0  0  0  0  0  0
    6.5714    6.2616   27.2891 H   0  0  0  0  0  0  0  0  0  0  0  0
    6.2286    6.5423   23.6314 C   0  0  0  0  0  0  0  0  0  0  0  0
    6.7403    7.3453   23.3262 C   0  0  0  0  0  0  0  0  0  0  0  0
    6.8374    8.2057   23.8266 C   0  0  0  0  0  0  0  0  0  0  0  0
    7.4018    8.8212   23.2766 N   0  0  0  0  0  0  0  0  0  0  0  0
    7.6537    8.3412   22.4361 C   0  0  0  0  0  0  0  0  0  0  0  0
    7.2449    7.4291   22.4669 N   0  0  0  0  0  0  0  0  0  0  0  0
    7.3250    6.7354   21.7729 H   0  0  0  0  0  0  0  0  0  0  0  0
    4.5465    4.0682   21.3584 C   0  0  0  0  0  0  0  0  0  0  0  0
    3.9132    3.2945   21.3727 C   0  0  0  0  0  0  0  0  0  0  0  0
    3.1284    3.2792   20.7532 C   0  0  0  0  0  0  0  0  0  0  0  0
    3.2463    2.9872   19.8040 O   0  0  0  0  0  0  0  0  0  0  0  0
    2.2257    3.5558   21.0828 N   0  0  0  0  0  0  0  0  0  0  0  0
    2.1097    3.8432   22.0172 H   0  0  0  0  0  0  0  0  0  0  0  0
    1.4531    3.5407   20.4728 H   0  0  0  0  0  0  0  0  0  0  0  0
    7.0189    1.6507   20.5444 C   0  0  0  0  0  0  0  0  0  0  0  0
    6.5759    0.7883   20.2989 C   0  0  0  0  0  0  0  0  0  0  0  0
    6.6725    0.4224   19.3733 C   0  0  0  0  0  0  0  0  0  0  0  0
    6.2130   -0.4295   19.1219 C   0  0  0  0  0  0  0  0  0  0  0  0
    5.9112   -0.5756   18.1799 N   0  0  0  0  0  0  0  0  0  0  0  0
    6.0720    0.1443   17.4753 H   0  0  0  0  0  0  0  0  0  0  0  0
    5.4425   -1.4445   17.9234 H   0  0  0  0  0  0  0  0  0  0  0  0
    9.7689   -0.0872   22.2266 C   0  0  0  0  0  0  0  0  0  0  0  0
   10.0300    0.0932   21.2782 O   0  0  0  0  0  0  0  0  0  0  0  0
    9.5066    0.6694   22.8255 N   0  0  0  0  0  0  0  0  0  0  0  0
    9.2496    0.4919   23.7591 H   0  0  0  0  0  0  0  0  0  0  0  0
    9.7703   -1.0241   22.5760 C   0  0  0  0  0  0  0  0  0  0  0  0
    8.2289   -1.7934   22.7559 C   0  0  0  0  0  0  0  0  0  0  0  0
    8.1812   -1.9293   21.7663 O   0  0  0  0  0  0  0  0  0  0  0  0
    9.0234   -1.3408   23.1607 N   0  0  0  0  0  0  0  0  0  0  0  0
    9.0705   -1.2070   24.1350 H   0  0  0  0  0  0  0  0  0  0  0  0
    7.4821   -2.1100   23.3406 C   0  0  0  0  0  0  0  0  0  0  0  0
    7.3235   -3.5459   24.2963 C   0  0  0  0  0  0  0  0  0  0  0  0
    7.5686   -3.0276   25.1156 O   0  0  0  0  0  0  0  0  0  0  0  0
    7.2802   -3.0871   23.4088 N   0  0  0  0  0  0  0  0  0  0  0  0
    7.0389   -3.5973   22.6022 H   0  0  0  0  0  0  0  0  0  0  0  0
    7.1216   -4.5229   24.3644 C   0  0  0  0  0  0  0  0  0  0  0  0
    7.5719   -5.1705   23.7497 C   0  0  0  0  0  0  0  0  0  0  0  0
    5.6417   -5.3324   24.7573 C   0  0  0  0  0  0  0  0  0  0  0  0
    5.4659   -5.4830   23.7844 O   0  0  0  0  0  0  0  0  0  0  0  0
    6.4696   -4.8523   25.0472 N   0  0  0  0  0  0  0  0  0  0  0  0
    6.6427   -4.7040   26.0050 H   0  0  0  0  0  0  0  0  0  0  0  0
    4.9895   -5.6618   25.4401 C   0  0  0  0  0  0  0  0  0  0  0  0
    4.5186   -4.7299   26.8220 C   0  0  0  0  0  0  0  0  0  0  0  0
    3.8091   -4.2819   26.2781 O   0  0  0  0  0  0  0  0  0  0  0  0
    5.1088   -5.4198   26.4030 N   0  0  0  0  0  0  0  0  0  0  0  0
    5.8074   -5.8609   26.9385 H   0  0  0  0  0  0  0  0  0  0  0  0
    4.6379   -4.4879   27.7849 C   0  0  0  0  0  0  0  0  0  0  0  0
    5.5516   -3.0823   28.2201 C   0  0  0  0  0  0  0  0  0  0  0  0
    6.4003   -3.5992   28.1081 O   0  0  0  0  0  0  0  0  0  0  0  0
    4.6704   -3.5266   28.0586 N   0  0  0  0  0  0  0  0  0  0  0  0
    3.8349   -3.0177   28.1689 H   0  0  0  0  0  0  0  0  0  0  0  0
    5.8409   -1.8756   29.4286 N   0  0  0  0  0  0  0  0  0  0  0  0
    5.5841   -2.1209   28.4938 C   0  0  0  0  0  0  0  0  0  0  0  0
    5.8741   -0.8952   29.7078 H   0  0  0  0  0  0  0  0  0  0  0  0
    6.0698   -2.6060   30.1030 H   0  0  0  0  0  0  0  0  0  0  0  0
    5.3598   -1.4050   27.8327 C   0  0  0  0  0  0  0  0  0  0  0  0
    5.9323   -1.2747   27.0232 O   0  0  0  0  0  0  0  0  0  0  0  0
    4.5629   -0.8194   27.9811 C   0  0  0  0  0  0  0  0  0  0  0  0
    6.7053   -1.8429   26.8793 H   0  0  0  0  0  0  0  0  0  0  0  0
    4.7247   -5.2071   28.4742 C   0  0  0  0  0  0  0  0  0  0  0  0
    3.9323   -5.4708   29.0242 C   0  0  0  0  0  0  0  0  0  0  0  0
    3.9931   -6.2508   29.6471 C   0  0  0  0  0  0  0  0  0  0  0  0
    4.5481   -6.1863   30.4764 O   0  0  0  0  0  0  0  0  0  0  0  0
    3.4988   -7.0952   29.4406 N   0  0  0  0  0  0  0  0  0  0  0  0
    2.9523   -7.1586   28.6242 H   0  0  0  0  0  0  0  0  0  0  0  0
    3.5586   -7.8631   30.0538 H   0  0  0  0  0  0  0  0  0  0  0  0
    4.2182   -6.2332   25.1600 C   0  0  0  0  0  0  0  0  0  0  0  0
    4.1919   -7.1990   25.4178 C   0  0  0  0  0  0  0  0  0  0  0  0
    3.3526   -7.7277   25.2908 C   0  0  0  0  0  0  0  0  0  0  0  0
    3.1495   -8.1372   24.4013 O   0  0  0  0  0  0  0  0  0  0  0  0
    2.7165   -7.8471   26.0531 N   0  0  0  0  0  0  0  0  0  0  0  0
    2.9165   -7.4440   26.9288 H   0  0  0  0  0  0  0  0  0  0  0  0
    1.8903   -8.3676   25.9280 H   0  0  0  0  0  0  0  0  0  0  0  0
    6.9371   -1.4497   23.8572 C   0  0  0  0  0  0  0  0  0  0  0  0
    6.2788   -0.8650   23.3831 O   0  0  0  0  0  0  0  0  0  0  0  0
    5.7501   -0.2244   23.8843 H   0  0  0  0  0  0  0  0  0  0  0  0
   10.5186   -1.6445   22.3406 C   0  0  0  0  0  0  0  0  0  0  0  0
   11.2769   -1.7779   22.9786 C   0  0  0  0  0  0  0  0  0  0  0  0
   12.2244   -1.4932   22.8331 C   0  0  0  0  0  0  0  0  0  0  0  0
   12.7541   -1.7588   23.6388 N   0  0  0  0  0  0  0  0  0  0  0  0
   12.1338   -2.2076   24.2821 C   0  0  0  0  0  0  0  0  0  0  0  0
   11.2209   -2.2193   23.8741 N   0  0  0  0  0  0  0  0  0  0  0  0
   10.4095   -2.5989   24.2824 H   0  0  0  0  0  0  0  0  0  0  0  0
 95 96  1  0  0  0
 95 97  1  0  0  0
 95 98  1  0  0  0
 96 91  1  0  0  0
 96 99  1  0  0  0
 91 92  2  0  0  0
 91 93  1  0  0  0
 93 90  1  0  0  0
 93 94  1  0  0  0
 90103  1  0  0  0
 90 86  1  0  0  0
103104  1  0  0  0
104105  1  0  0  0
105106  2  0  0  0
105107  1  0  0  0
107108  1  0  0  0
107109  1  0  0  0
 86 87  2  0  0  0
 86 88  1  0  0  0
 88 85  1  0  0  0
 88 89  1  0  0  0
 85110  1  0  0  0
 85 81  1  0  0  0
110111  1  0  0  0
111112  1  0  0  0
112113  2  0  0  0
112114  1  0  0  0
114115  1  0  0  0
114116  1  0  0  0
 81 82  2  0  0  0
 81 83  1  0  0  0
 83 79  1  0  0  0
 83 84  1  0  0  0
 79 80  1  0  0  0
 79 75  1  0  0  0
 75 76  2  0  0  0
 75 77  1  0  0  0
 77 74  1  0  0  0
 77 78  1  0  0  0
 74117  1  0  0  0
 74 70  1  0  0  0
117118  1  0  0  0
118119  1  0  0  0
 70 71  2  0  0  0
 70 72  1  0  0  0
 72 69  1  0  0  0
 72 73  1  0  0  0
 69120  1  0  0  0
 69 65  1  0  0  0
120121  1  0  0  0
121125  1  0  0  0
121122  2  0  0  0
122123  1  0  0  0
123124  2  0  0  0
124125  1  0  0  0
125126  1  0  0  0
 65 66  2  0  0  0
 65 67  1  0  0  0
 67  1  1  0  0  0
 67 68  1  0  0  0
  1  2  1  0  0  0
  1 10  1  0  0  0
  2  8  2  0  0  0
  2  3  1  0  0  0
  3  4  2  0  0  0
  4  5  1  0  0  0
  5  6  1  0  0  0
  5  7  2  0  0  0
  6  9  1  0  0  0
  7  8  1  0  0  0
 10 11  2  0  0  0
 10 12  1  0  0  0
 12 14  1  0  0  0
 12 13  1  0  0  0
 14 58  1  0  0  0
 14 15  1  0  0  0
 58 59  1  0  0  0
 59 60  1  0  0  0
 60 61  1  0  0  0
 61 62  1  0  0  0
 62 63  1  0  0  0
 62 64  1  0  0  0
 15 16  2  0  0  0
 15 17  1  0  0  0
 17 19  1  0  0  0
 17 18  1  0  0  0
 19 51  1  0  0  0
 19 20  1  0  0  0
 51 52  1  0  0  0
 52 53  1  0  0  0
 53 54  2  0  0  0
 53 55  1  0  0  0
 55 56  1  0  0  0
 55 57  1  0  0  0
 20 21  2  0  0  0
 20 22  1  0  0  0
 22 24  1  0  0  0
 22 23  1  0  0  0
 24 44  1  0  0  0
 24 25  1  0  0  0
 44 45  1  0  0  0
 45 49  1  0  0  0
 45 46  2  0  0  0
 46 47  1  0  0  0
 47 48  2  0  0  0
 48 49  1  0  0  0
 49 50  1  0  0  0
 25 26  2  0  0  0
 25 27  1  0  0  0
 27 29  1  0  0  0
 27 28  1  0  0  0
 29 41  1  0  0  0
 29 30  1  0  0  0
 41 42  1  0  0  0
 42 43  1  0  0  0
 30 31  2  0  0  0
 30 32  1  0  0  0
 32 36  1  0  0  0
 32 33  1  0  0  0
 33 34  1  0  0  0
 34 35  1  0  0  0
 35 36  1  0  0  0
 36 37  1  0  0  0
 37 38  1  0  0  0
 37 39  2  0  0  0
 38 40  1  0  0  0
 99100  1  0  0  0
 99101  1  0  0  0
100102  1  0  0  0
M  END
> <minimizedAffinity>
-7.77904

$$$$



126129  0  0  0  0  0  0  0  0999 V2000
    9.2548    1.5540   22.4215 C   0  0  0  0  0  0  0  0  0  0  0  0
   10.0114    2.1735   22.6307 C   0  0  0  0  0  0  0  0  0  0  0  0
   10.7679    2.2747   21.9846 C   0  0  0  0  0  0  0  0  0  0  0  0
   11.5246    2.8943   22.1938 C   0  0  0  0  0  0  0  0  0  0  0  0
   11.5246    3.4126   23.0490 C   0  0  0  0  0  0  0  0  0  0  0  0
   12.2812    4.0321   23.2581 O   0  0  0  0  0  0  0  0  0  0  0  0
   10.7681    3.3113   23.6951 C   0  0  0  0  0  0  0  0  0  0  0  0
   10.0115    2.6918   23.4859 C   0  0  0  0  0  0  0  0  0  0  0  0
   12.9901    4.1269   22.6528 H   0  0  0  0  0  0  0  0  0  0  0  0
    8.5725    1.8113   21.7373 C   0  0  0  0  0  0  0  0  0  0  0  0
    8.8013    2.4800   21.0298 O   0  0  0  0  0  0  0  0  0  0  0  0
    7.6613    1.3999   21.7605 N   0  0  0  0  0  0  0  0  0  0  0  0
    7.4361    0.7416   22.4570 H   0  0  0  0  0  0  0  0  0  0  0  0
    6.9789    1.6572   21.0762 C   0  0  0  0  0  0  0  0  0  0  0  0
    6.1173    2.0763   21.3623 C   0  0  0  0  0  0  0  0  0  0  0  0
    5.5066    1.5881   21.9857 O   0  0  0  0  0  0  0  0  0  0  0  0
    5.8664    2.9836   21.0250 N   0  0  0  0  0  0  0  0  0  0  0  0
    6.4677    3.4642   20.4112 H   0  0  0  0  0  0  0  0  0  0  0  0
    5.0047    3.4028   21.3111 C   0  0  0  0  0  0  0  0  0  0  0  0
    5.0058    4.1274   22.0001 C   0  0  0  0  0  0  0  0  0  0  0  0
    5.0507    5.0857   21.7179 O   0  0  0  0  0  0  0  0  0  0  0  0
    4.9620    3.8938   22.9715 N   0  0  0  0  0  0  0  0  0  0  0  0
    4.9178    2.9504   23.2494 H   0  0  0  0  0  0  0  0  0  0  0  0
    4.9630    4.6185   23.6606 C   0  0  0  0  0  0  0  0  0  0  0  0
    5.8187    4.8859   24.1036 C   0  0  0  0  0  0  0  0  0  0  0  0
    6.4068    4.1903   24.5162 O   0  0  0  0  0  0  0  0  0  0  0  0
    6.0864    5.8490   24.1340 N   0  0  0  0  0  0  0  0  0  0  0  0
    5.5074    6.5338   23.7277 H   0  0  0  0  0  0  0  0  0  0  0  0
    6.9420    6.1164   24.5770 C   0  0  0  0  0  0  0  0  0  0  0  0
    7.7505    6.3162   24.0234 C   0  0  0  0  0  0  0  0  0  0  0  0
    8.5668    5.7446   24.1060 O   0  0  0  0  0  0  0  0  0  0  0  0
    7.7426    7.0877   23.3871 N   0  0  0  0  0  0  0  0  0  0  0  0
    6.9791    7.7148   23.2331 C   0  0  0  0  0  0  0  0  0  0  0  0
    7.2615    8.3821   22.5440 C   0  0  0  0  0  0  0  0  0  0  0  0
    8.1996    8.1674   22.2721 C   0  0  0  0  0  0  0  0  0  0  0  0
    8.4969    7.3675   22.7932 C   0  0  0  0  0  0  0  0  0  0  0  0
    9.3915    6.9249   22.7312 C   0  0  0  0  0  0  0  0  0  0  0  0
    9.5473    6.2046   22.0552 O   0  0  0  0  0  0  0  0  0  0  0  0
   10.1304    7.2026   23.3453 O   0  0  0  0  0  0  0  0  0  0  0  0
    8.8550    5.9444   21.4799 H   0  0  0  0  0  0  0  0  0  0  0  0
    6.9893    6.1840   25.5736 C   0  0  0  0  0  0  0  0  0  0  0  0
    6.5776    6.9659   26.0418 S   0  0  0  0  0  0  0  0  0  0  0  0
    5.9534    7.9373   25.3232 H   0  0  0  0  0  0  0  0  0  0  0  0
    4.1084    5.0757   23.9067 C   0  0  0  0  0  0  0  0  0  0  0  0
    3.4872    4.6530   24.5665 C   0  0  0  0  0  0  0  0  0  0  0  0
    3.3118    4.9733   25.4974 C   0  0  0  0  0  0  0  0  0  0  0  0
    2.6485    4.3541   25.9175 N   0  0  0  0  0  0  0  0  0  0  0  0
    2.4138    3.6509   25.2462 C   0  0  0  0  0  0  0  0  0  0  0  0
    2.9323    3.8358   24.4112 N   0  0  0  0  0  0  0  0  0  0  0  0
    2.9016    3.3060   23.5819 H   0  0  0  0  0  0  0  0  0  0  0  0
    4.1420    3.0972   20.9081 C   0  0  0  0  0  0  0  0  0  0  0  0
    3.9651    3.2438   19.9349 C   0  0  0  0  0  0  0  0  0  0  0  0
    3.2434    2.7269   19.4744 C   0  0  0  0  0  0  0  0  0  0  0  0
    3.1803    1.7367   19.5990 O   0  0  0  0  0  0  0  0  0  0  0  0
    2.5849    3.2002   18.8894 N   0  0  0  0  0  0  0  0  0  0  0  0
    2.6471    4.1751   18.7668 H   0  0  0  0  0  0  0  0  0  0  0  0
    1.8744    2.6914   18.4361 H   0  0  0  0  0  0  0  0  0  0  0  0
    7.1583    1.4952   20.1058 C   0  0  0  0  0  0  0  0  0  0  0  0
    6.8382    0.6530   19.6719 C   0  0  0  0  0  0  0  0  0  0  0  0
    6.8016    0.5869   18.6748 C   0  0  0  0  0  0  0  0  0  0  0  0
    5.9866    0.2184   18.2276 C   0  0  0  0  0  0  0  0  0  0  0  0
    5.9697   -0.7349   17.9260 N   0  0  0  0  0  0  0  0  0  0  0  0
    6.7837   -1.3314   18.0746 H   0  0  0  0  0  0  0  0  0  0  0  0
    5.1384   -1.1108   17.4700 H   0  0  0  0  0  0  0  0  0  0  0  0
    9.5324   -0.1550   22.4683 C   0  0  0  0  0  0  0  0  0  0  0  0
    9.9587   -0.1105   21.5647 O   0  0  0  0  0  0  0  0  0  0  0  0
    9.1805    0.6772   22.8967 N   0  0  0  0  0  0  0  0  0  0  0  0
    8.7608    0.6334   23.7861 H   0  0  0  0  0  0  0  0  0  0  0  0
    9.4582   -1.0318   22.9434 C   0  0  0  0  0  0  0  0  0  0  0  0
    7.8663   -1.5686   23.3651 C   0  0  0  0  0  0  0  0  0  0  0  0
    7.7024   -1.8298   22.4139 O   0  0  0  0  0  0  0  0  0  0  0  0
    8.7442   -1.1695   23.6299 N   0  0  0  0  0  0  0  0  0  0  0  0
    8.9056   -0.9123   24.5664 H   0  0  0  0  0  0  0  0  0  0  0  0
    7.1523   -1.7063   24.0515 C   0  0  0  0  0  0  0  0  0  0  0  0
    7.0039   -2.8938   25.3037 C   0  0  0  0  0  0  0  0  0  0  0  0
    7.3382   -2.2300   25.9727 O   0  0  0  0  0  0  0  0  0  0  0  0
    6.9110   -2.6320   24.3431 N   0  0  0  0  0  0  0  0  0  0  0  0
    6.5819   -3.2854   23.6844 H   0  0  0  0  0  0  0  0  0  0  0  0
    6.7626   -3.8194   25.5953 C   0  0  0  0  0  0  0  0  0  0  0  0
    6.8629   -4.5856   24.9607 C   0  0  0  0  0  0  0  0  0  0  0  0
    5.4757   -4.2736   26.6619 C   0  0  0  0  0  0  0  0  0  0  0  0
    4.8723   -4.4091   25.8761 O   0  0  0  0  0  0  0  0  0  0  0  0
    6.4209   -3.9787   26.5215 N   0  0  0  0  0  0  0  0  0  0  0  0
    7.0150   -3.8453   27.2951 H   0  0  0  0  0  0  0  0  0  0  0  0
    5.1340   -4.4329   27.5881 C   0  0  0  0  0  0  0  0  0  0  0  0
    4.5822   -3.0265   28.4351 C   0  0  0  0  0  0  0  0  0  0  0  0
    3.7611   -3.0052   27.8648 O   0  0  0  0  0  0  0  0  0  0  0  0
    5.2687   -3.7404   28.2968 N   0  0  0  0  0  0  0  0  0  0  0  0
    6.0771   -3.7614   28.8582 H   0  0  0  0  0  0  0  0  0  0  0  0
    4.7169   -2.3339   29.1438 C   0  0  0  0  0  0  0  0  0  0  0  0
    5.9144   -1.1405   28.7674 C   0  0  0  0  0  0  0  0  0  0  0  0
    5.2975   -0.7339   28.0936 O   0  0  0  0  0  0  0  0  0  0  0  0
    5.6242   -1.9405   29.2925 N   0  0  0  0  0  0  0  0  0  0  0  0
    6.2316   -2.3409   29.9558 H   0  0  0  0  0  0  0  0  0  0  0  0
    7.5446   -1.3000   29.3306 N   0  0  0  0  0  0  0  0  0  0  0  0
    6.8218   -0.7471   28.9161 C   0  0  0  0  0  0  0  0  0  0  0  0
    8.4700   -0.8989   29.4823 H   0  0  0  0  0  0  0  0  0  0  0  0
    7.3564   -2.2652   29.6017 H   0  0  0  0  0  0  0  0  0  0  0  0
    7.0062    0.1991   28.6503 C   0  0  0  0  0  0  0  0  0  0  0  0
    7.3770    0.4006   27.7438 O   0  0  0  0  0  0  0  0  0  0  0  0
    6.8198    0.9438   29.2912 C   0  0  0  0  0  0  0  0  0  0  0  0
    7.5578   -0.3219   27.1222 H   0  0  0  0  0  0  0  0  0  0  0  0
    3.9443   -2.0348   29.7038 C   0  0  0  0  0  0  0  0  0  0  0  0
    3.9058   -2.2775   30.6731 C   0  0  0  0  0  0  0  0  0  0  0  0
    3.1019   -2.0371   31.2172 C   0  0  0  0  0  0  0  0  0  0  0  0
    2.8010   -2.6384   31.9574 O   0  0  0  0  0  0  0  0  0  0  0  0
    2.5989   -1.1953   31.0211 N   0  0  0  0  0  0  0  0  0  0  0  0
    2.8952   -0.6034   30.2924 H   0  0  0  0  0  0  0  0  0  0  0  0
    1.8076   -0.9586   31.5567 H   0  0  0  0  0  0  0  0  0  0  0  0
    4.6576   -5.2848   27.8056 C   0  0  0  0  0  0  0  0  0  0  0  0
    5.0626   -5.9337   28.4498 C   0  0  0  0  0  0  0  0  0  0  0  0
    4.7584   -6.8862   28.4577 C   0  0  0  0  0  0  0  0  0  0  0  0
    3.9933   -7.1620   29.0396 O   0  0  0  0  0  0  0  0  0  0  0  0
    5.2192   -7.5632   27.8836 N   0  0  0  0  0  0  0  0  0  0  0  0
    5.9724   -7.2917   27.3106 H   0  0  0  0  0  0  0  0  0  0  0  0
    4.9196   -8.5010   27.8914 H   0  0  0  0  0  0  0  0  0  0  0  0
    6.6797   -0.9185   24.4464 C   0  0  0  0  0  0  0  0  0  0  0  0
    6.0855   -0.3534   23.8740 O   0  0  0  0  0  0  0  0  0  0  0  0
    5.6271    0.4108   24.2571 H   0  0  0  0  0  0  0  0  0  0  0  0
   10.0979   -1.7708   22.7321 C   0  0  0  0  0  0  0  0  0  0  0  0
   10.9731   -1.8271   23.2125 C   0  0  0  0  0  0  0  0  0  0  0  0
   11.8675   -1.9724   22.7895 C   0  0  0  0  0  0  0  0  0  0  0  0
   12.5549   -1.9832   23.5158 N   0  0  0  0  0  0  0  0  0  0  0  0
   12.0851   -1.8446   24.3877 C   0  0  0  0  0  0  0  0  0  0  0  0
   11.1076   -1.7482   24.2002 N   0  0  0  0  0  0  0  0  0  0  0  0
   10.4016   -1.6013   24.8704 H   0  0  0  0  0  0  0  0  0  0  0  0
 95 96  1  0  0  0
 95 97  1  0  0  0
 95 98  1  0  0  0
 96 91  1  0  0  0
 96 99  1  0  0  0
 91 92  2  0  0  0
 91 93  1  0  0  0
 93 90  1  0  0  0
 93 94  1  0  0  0
 90103  1  0  0  0
 90 86  1  0  0  0
103104  1  0  0  0
104105  1  0  0  0
105106  2  0  0  0
105107  1  0  0  0
107108  1  0  0  0
107109  1  0  0  0
 86 87  2  0  0  0
 86 88  1  0  0  0
 88 85  1  0  0  0
 88 89  1  0  0  0
 85110  1  0  0  0
 85 81  1  0  0  0
110111  1  0  0  0
111112  1  0  0  0
112113  2  0  0  0
112114  1  0  0  0
114115  1  0  0  0
114116  1  0  0  0
 81 82  2  0  0  0
 81 83  1  0  0  0
 83 79  1  0  0  0
 83 84  1  0  0  0
 79 80  1  0  0  0
 79 75  1  0  0  0
 75 76  2  0  0  0
 75 77  1  0  0  0
 77 74  1  0  0  0
 77 78  1  0  0  0
 74117  1  0  0  0
 74 70  1  0  0  0
117118  1  0  0  0
118119  1  0  0  0
 70 71  2  0  0  0
 70 72  1  0  0  0
 72 69  1  0  0  0
 72 73  1  0  0  0
 69120  1  0  0  0
 69 65  1  0  0  0
120121  1  0  0  0
121125  1  0  0  0
121122  2  0  0  0
122123  1  0  0  0
123124  2  0  0  0
124125  1  0  0  0
125126  1  0  0  0
 65 66  2  0  0  0
 65 67  1  0  0  0
 67  1  1  0  0  0
 67 68  1  0  0  0
  1  2  1  0  0  0
  1 10  1  0  0  0
  2  8  2  0  0  0
  2  3  1  0  0  0
  3  4  2  0  0  0
  4  5  1  0  0  0
  5  6  1  0  0  0
  5  7  2  0  0  0
  6  9  1  0  0  0
  7  8  1  0  0  0
 10 11  2  0  0  0
 10 12  1  0  0  0
 12 14  1  0  0  0
 12 13  1  0  0  0
 14 58  1  0  0  0
 14 15  1  0  0  0
 58 59  1  0  0  0
 59 60  1  0  0  0
 60 61  1  0  0  0
 61 62  1  0  0  0
 62 63  1  0  0  0
 62 64  1  0  0  0
 15 16  2  0  0  0
 15 17  1  0  0  0
 17 19  1  0  0  0
 17 18  1  0  0  0
 19 51  1  0  0  0
 19 20  1  0  0  0
 51 52  1  0  0  0
 52 53  1  0  0  0
 53 54  2  0  0  0
 53 55  1  0  0  0
 55 56  1  0  0  0
 55 57  1  0  0  0
 20 21  2  0  0  0
 20 22  1  0  0  0
 22 24  1  0  0  0
 22 23  1  0  0  0
 24 44  1  0  0  0
 24 25  1  0  0  0
 44 45  1  0  0  0
 45 49  1  0  0  0
 45 46  2  0  0  0
 46 47  1  0  0  0
 47 48  2  0  0  0
 48 49  1  0  0  0
 49 50  1  0  0  0
 25 26  2  0  0  0
 25 27  1  0  0  0
 27 29  1  0  0  0
 27 28  1  0  0  0
 29 41  1  0  0  0
 29 30  1  0  0  0
 41 42  1  0  0  0
 42 43  1  0  0  0
 30 31  2  0  0  0
 30 32  1  0  0  0
 32 36  1  0  0  0
 32 33  1  0  0  0
 33 34  1  0  0  0
 34 35  1  0  0  0
 35 36  1  0  0  0
 36 37  1  0  0  0
 37 38  1  0  0  0
 37 39  2  0  0  0
 38 40  1  0  0  0
 99100  1  0  0  0
 99101  1  0  0  0
100102  1  0  0  0
M  END
> <minimizedAffinity>
-7.75949

$$$$



126129  0  0  0  0  0  0  0  0999 V2000
    9.6456    1.5390   22.6000 C   0  0  0  0  0  0  0  0  0  0  0  0
   10.4521    2.0931   22.8062 C   0  0  0  0  0  0  0  0  0  0  0  0
   10.3835    2.8562   23.4488 C   0  0  0  0  0  0  0  0  0  0  0  0
   11.1901    3.4103   23.6550 C   0  0  0  0  0  0  0  0  0  0  0  0
   12.0652    3.2013   23.2186 C   0  0  0  0  0  0  0  0  0  0  0  0
   12.8717    3.7553   23.4249 O   0  0  0  0  0  0  0  0  0  0  0  0
   12.1338    2.4381   22.5761 C   0  0  0  0  0  0  0  0  0  0  0  0
   11.3273    1.8840   22.3698 C   0  0  0  0  0  0  0  0  0  0  0  0
   12.8073    4.4704   24.0269 H   0  0  0  0  0  0  0  0  0  0  0  0
    8.8802    1.9385   22.0955 C   0  0  0  0  0  0  0  0  0  0  0  0
    9.0450    2.4156   21.2322 O   0  0  0  0  0  0  0  0  0  0  0  0
    7.9501    1.8609   22.4543 N   0  0  0  0  0  0  0  0  0  0  0  0
    7.7879    1.3912   23.3042 H   0  0  0  0  0  0  0  0  0  0  0  0
    7.1846    2.2604   21.9498 C   0  0  0  0  0  0  0  0  0  0  0  0
    6.8069    3.1428   22.2305 C   0  0  0  0  0  0  0  0  0  0  0  0
    6.1192    3.5955   21.6630 O   0  0  0  0  0  0  0  0  0  0  0  0
    7.1168    3.5723   23.0787 N   0  0  0  0  0  0  0  0  0  0  0  0
    7.7938    3.1265   23.6373 H   0  0  0  0  0  0  0  0  0  0  0  0
    6.7391    4.4546   23.3594 C   0  0  0  0  0  0  0  0  0  0  0  0
    6.0170    4.4924   24.0502 C   0  0  0  0  0  0  0  0  0  0  0  0
    5.3940    5.2739   24.0800 O   0  0  0  0  0  0  0  0  0  0  0  0
    5.9180    3.7485   24.7112 N   0  0  0  0  0  0  0  0  0  0  0  0
    6.5315    2.9790   24.6819 H   0  0  0  0  0  0  0  0  0  0  0  0
    5.1960    3.7863   25.4020 C   0  0  0  0  0  0  0  0  0  0  0  0
    4.3334    3.3037   25.2505 C   0  0  0  0  0  0  0  0  0  0  0  0
    4.3366    2.3229   25.0559 O   0  0  0  0  0  0  0  0  0  0  0  0
    3.4674    3.8020   25.2935 N   0  0  0  0  0  0  0  0  0  0  0  0
    3.4642    4.7677   25.4851 H   0  0  0  0  0  0  0  0  0  0  0  0
    2.6048    3.3195   25.1420 C   0  0  0  0  0  0  0  0  0  0  0  0
    2.1570    3.3642   24.2489 C   0  0  0  0  0  0  0  0  0  0  0  0
    2.0318    2.5312   23.7101 O   0  0  0  0  0  0  0  0  0  0  0  0
    1.8345    4.2421   23.8947 N   0  0  0  0  0  0  0  0  0  0  0  0
    1.9127    5.1262   24.3554 C   0  0  0  0  0  0  0  0  0  0  0  0
    1.5037    5.8204   23.7630 C   0  0  0  0  0  0  0  0  0  0  0  0
    1.1729    5.3653   22.9363 C   0  0  0  0  0  0  0  0  0  0  0  0
    1.3773    4.3898   23.0177 C   0  0  0  0  0  0  0  0  0  0  0  0
    1.1624    3.6858   22.3410 C   0  0  0  0  0  0  0  0  0  0  0  0
    1.8146    3.4768   21.6123 O   0  0  0  0  0  0  0  0  0  0  0  0
    0.2951    3.1906   22.3929 O   0  0  0  0  0  0  0  0  0  0  0  0
    2.6272    3.9408   21.5637 H   0  0  0  0  0  0  0  0  0  0  0  0
    2.1898    2.7921   25.8835 C   0  0  0  0  0  0  0  0  0  0  0  0
    1.7445    3.2641   26.6443 S   0  0  0  0  0  0  0  0  0  0  0  0
    1.7031    4.6233   26.6707 H   0  0  0  0  0  0  0  0  0  0  0  0
    5.3366    4.3066   26.2444 C   0  0  0  0  0  0  0  0  0  0  0  0
    5.7398    3.8629   27.0447 C   0  0  0  0  0  0  0  0  0  0  0  0
    5.4448    3.9805   27.9930 C   0  0  0  0  0  0  0  0  0  0  0  0
    6.0315    3.4140   28.5716 N   0  0  0  0  0  0  0  0  0  0  0  0
    6.6892    2.9463   27.9810 C   0  0  0  0  0  0  0  0  0  0  0  0
    6.5089    3.2238   27.0373 N   0  0  0  0  0  0  0  0  0  0  0  0
    7.0020    2.9209   26.2409 H   0  0  0  0  0  0  0  0  0  0  0  0
    7.0834    5.2992   22.9493 C   0  0  0  0  0  0  0  0  0  0  0  0
    7.9700    5.6663   23.2306 C   0  0  0  0  0  0  0  0  0  0  0  0
    8.3998    6.3968   22.7000 C   0  0  0  0  0  0  0  0  0  0  0  0
    7.9861    7.3069   22.6755 O   0  0  0  0  0  0  0  0  0  0  0  0
    9.2433    6.2172   22.1938 N   0  0  0  0  0  0  0  0  0  0  0  0
    9.6506    5.3212   22.2179 H   0  0  0  0  0  0  0  0  0  0  0  0
    9.6665    6.9364   21.6713 H   0  0  0  0  0  0  0  0  0  0  0  0
    6.7968    1.7776   21.1646 C   0  0  0  0  0  0  0  0  0  0  0  0
    6.2006    0.9876   21.3080 C   0  0  0  0  0  0  0  0  0  0  0  0
    5.9898    0.3754   20.5459 C   0  0  0  0  0  0  0  0  0  0  0  0
    5.4491    0.7073   19.7729 C   0  0  0  0  0  0  0  0  0  0  0  0
    5.1237    0.0657   19.0783 N   0  0  0  0  0  0  0  0  0  0  0  0
    5.3432   -0.9272   19.1583 H   0  0  0  0  0  0  0  0  0  0  0  0
    4.5722    0.4042   18.2898 H   0  0  0  0  0  0  0  0  0  0  0  0
    9.7196   -0.1521   22.2327 C   0  0  0  0  0  0  0  0  0  0  0  0
    9.8757    0.0641   21.2688 O   0  0  0  0  0  0  0  0  0  0  0  0
    9.6046    0.5854   22.8982 N   0  0  0  0  0  0  0  0  0  0  0  0
    9.4509    0.3726   23.8471 H   0  0  0  0  0  0  0  0  0  0  0  0
    9.6785   -1.1057   22.5310 C   0  0  0  0  0  0  0  0  0  0  0  0
    8.1603   -1.8735   22.8554 C   0  0  0  0  0  0  0  0  0  0  0  0
    8.0459   -2.0599   21.8796 O   0  0  0  0  0  0  0  0  0  0  0  0
    8.9765   -1.3964   23.1811 N   0  0  0  0  0  0  0  0  0  0  0  0
    9.0891   -1.2130   24.1418 H   0  0  0  0  0  0  0  0  0  0  0  0
    7.4583   -2.1643   23.5055 C   0  0  0  0  0  0  0  0  0  0  0  0
    7.3033   -3.6426   24.3946 C   0  0  0  0  0  0  0  0  0  0  0  0
    7.6992   -3.2002   25.1992 O   0  0  0  0  0  0  0  0  0  0  0  0
    7.1829   -3.1247   23.5477 N   0  0  0  0  0  0  0  0  0  0  0  0
    6.7931   -3.5602   22.7555 H   0  0  0  0  0  0  0  0  0  0  0  0
    7.0279   -4.6030   24.4367 C   0  0  0  0  0  0  0  0  0  0  0  0
    7.3821   -5.2547   23.7660 C   0  0  0  0  0  0  0  0  0  0  0  0
    5.5128   -5.3032   24.8994 C   0  0  0  0  0  0  0  0  0  0  0  0
    5.2569   -5.3858   23.9362 O   0  0  0  0  0  0  0  0  0  0  0  0
    6.3983   -4.9118   25.1496 N   0  0  0  0  0  0  0  0  0  0  0  0
    6.6503   -4.8304   26.0979 H   0  0  0  0  0  0  0  0  0  0  0  0
    4.8831   -5.6120   25.6123 C   0  0  0  0  0  0  0  0  0  0  0  0
    4.4595   -4.5904   26.9453 C   0  0  0  0  0  0  0  0  0  0  0  0
    3.7617   -4.1464   26.3833 O   0  0  0  0  0  0  0  0  0  0  0  0
    5.0202   -5.3232   26.5598 N   0  0  0  0  0  0  0  0  0  0  0  0
    5.7073   -5.7603   27.1131 H   0  0  0  0  0  0  0  0  0  0  0  0
    4.5966   -4.3016   27.8928 C   0  0  0  0  0  0  0  0  0  0  0  0
    5.6094   -2.9468   28.2653 C   0  0  0  0  0  0  0  0  0  0  0  0
    6.4169   -3.5335   28.2039 O   0  0  0  0  0  0  0  0  0  0  0  0
    4.6993   -3.3308   28.1098 N   0  0  0  0  0  0  0  0  0  0  0  0
    3.9043   -2.7532   28.1702 H   0  0  0  0  0  0  0  0  0  0  0  0
    5.7512   -1.6782   29.4361 N   0  0  0  0  0  0  0  0  0  0  0  0
    5.7121   -1.9760   28.4822 C   0  0  0  0  0  0  0  0  0  0  0  0
    5.8558   -0.6881   29.6574 H   0  0  0  0  0  0  0  0  0  0  0  0
    5.6863   -2.3648   30.1877 H   0  0  0  0  0  0  0  0  0  0  0  0
    5.7756   -1.3030   27.7454 C   0  0  0  0  0  0  0  0  0  0  0  0
    6.4476   -1.4235   27.0146 O   0  0  0  0  0  0  0  0  0  0  0  0
    5.1673   -0.5093   27.7393 C   0  0  0  0  0  0  0  0  0  0  0  0
    7.0377   -2.1934   27.0206 H   0  0  0  0  0  0  0  0  0  0  0  0
    4.6310   -4.9835   28.6234 C   0  0  0  0  0  0  0  0  0  0  0  0
    3.8010   -5.2149   29.1309 C   0  0  0  0  0  0  0  0  0  0  0  0
    3.8544   -5.4272   30.1067 C   0  0  0  0  0  0  0  0  0  0  0  0
    3.5291   -4.7645   30.7811 O   0  0  0  0  0  0  0  0  0  0  0  0
    4.2330   -6.3024   30.4079 N   0  0  0  0  0  0  0  0  0  0  0  0
    4.5533   -6.9548   29.7439 H   0  0  0  0  0  0  0  0  0  0  0  0
    4.2855   -6.5114   31.3685 H   0  0  0  0  0  0  0  0  0  0  0  0
    4.1164   -6.2095   25.3777 C   0  0  0  0  0  0  0  0  0  0  0  0
    4.1591   -7.1853   25.5923 C   0  0  0  0  0  0  0  0  0  0  0  0
    3.3552   -7.7635   25.4533 C   0  0  0  0  0  0  0  0  0  0  0  0
    3.2461   -8.2709   24.5985 O   0  0  0  0  0  0  0  0  0  0  0  0
    2.6603   -7.8343   26.1690 N   0  0  0  0  0  0  0  0  0  0  0  0
    2.7678   -7.3347   27.0105 H   0  0  0  0  0  0  0  0  0  0  0  0
    1.8688   -8.4035   26.0320 H   0  0  0  0  0  0  0  0  0  0  0  0
    7.0317   -1.4946   24.1135 C   0  0  0  0  0  0  0  0  0  0  0  0
    6.1799   -1.0456   23.8437 O   0  0  0  0  0  0  0  0  0  0  0  0
    5.7662   -0.3960   24.4334 H   0  0  0  0  0  0  0  0  0  0  0  0
   10.3395   -1.7685   22.1790 C   0  0  0  0  0  0  0  0  0  0  0  0
   11.2127   -1.9012   22.6480 C   0  0  0  0  0  0  0  0  0  0  0  0
   11.3350   -2.2712   23.5689 C   0  0  0  0  0  0  0  0  0  0  0  0
   12.3149   -2.2858   23.7684 N   0  0  0  0  0  0  0  0  0  0  0  0
   12.7980   -1.9247   22.9708 C   0  0  0  0  0  0  0  0  0  0  0  0
   12.1168   -1.6870   22.2784 N   0  0  0  0  0  0  0  0  0  0  0  0
   12.3035   -1.3085   21.3889 H   0  0  0  0  0  0  0  0  0  0  0  0
 95 96  1  0  0  0
 95 97  1  0  0  0
 95 98  1  0  0  0
 96 91  1  0  0  0
 96 99  1  0  0  0
 91 92  2  0  0  0
 91 93  1  0  0  0
 93 90  1  0  0  0
 93 94  1  0  0  0
 90103  1  0  0  0
 90 86  1  0  0  0
103104  1  0  0  0
104105  1  0  0  0
105106  2  0  0  0
105107  1  0  0  0
107108  1  0  0  0
107109  1  0  0  0
 86 87  2  0  0  0
 86 88  1  0  0  0
 88 85  1  0  0  0
 88 89  1  0  0  0
 85110  1  0  0  0
 85 81  1  0  0  0
110111  1  0  0  0
111112  1  0  0  0
112113  2  0  0  0
112114  1  0  0  0
114115  1  0  0  0
114116  1  0  0  0
 81 82  2  0  0  0
 81 83  1  0  0  0
 83 79  1  0  0  0
 83 84  1  0  0  0
 79 80  1  0  0  0
 79 75  1  0  0  0
 75 76  2  0  0  0
 75 77  1  0  0  0
 77 74  1  0  0  0
 77 78  1  0  0  0
 74117  1  0  0  0
 74 70  1  0  0  0
117118  1  0  0  0
118119  1  0  0  0
 70 71  2  0  0  0
 70 72  1  0  0  0
 72 69  1  0  0  0
 72 73  1  0  0  0
 69120  1  0  0  0
 69 65  1  0  0  0
120121  1  0  0  0
121125  1  0  0  0
121122  2  0  0  0
122123  1  0  0  0
123124  2  0  0  0
124125  1  0  0  0
125126  1  0  0  0
 65 66  2  0  0  0
 65 67  1  0  0  0
 67  1  1  0  0  0
 67 68  1  0  0  0
  1  2  1  0  0  0
  1 10  1  0  0  0
  2  8  2  0  0  0
  2  3  1  0  0  0
  3  4  2  0  0  0
  4  5  1  0  0  0
  5  6  1  0  0  0
  5  7  2  0  0  0
  6  9  1  0  0  0
  7  8  1  0  0  0
 10 11  2  0  0  0
 10 12  1  0  0  0
 12 14  1  0  0  0
 12 13  1  0  0  0
 14 58  1  0  0  0
 14 15  1  0  0  0
 58 59  1  0  0  0
 59 60  1  0  0  0
 60 61  1  0  0  0
 61 62  1  0  0  0
 62 63  1  0  0  0
 62 64  1  0  0  0
 15 16  2  0  0  0
 15 17  1  0  0  0
 17 19  1  0  0  0
 17 18  1  0  0  0
 19 51  1  0  0  0
 19 20  1  0  0  0
 51 52  1  0  0  0
 52 53  1  0  0  0
 53 54  2  0  0  0
 53 55  1  0  0  0
 55 56  1  0  0  0
 55 57  1  0  0  0
 20 21  2  0  0  0
 20 22  1  0  0  0
 22 24  1  0  0  0
 22 23  1  0  0  0
 24 44  1  0  0  0
 24 25  1  0  0  0
 44 45  1  0  0  0
 45 49  1  0  0  0
 45 46  2  0  0  0
 46 47  1  0  0  0
 47 48  2  0  0  0
 48 49  1  0  0  0
 49 50  1  0  0  0
 25 26  2  0  0  0
 25 27  1  0  0  0
 27 29  1  0  0  0
 27 28  1  0  0  0
 29 41  1  0  0  0
 29 30  1  0  0  0
 41 42  1  0  0  0
 42 43  1  0  0  0
 30 31  2  0  0  0
 30 32  1  0  0  0
 32 36  1  0  0  0
 32 33  1  0  0  0
 33 34  1  0  0  0
 34 35  1  0  0  0
 35 36  1  0  0  0
 36 37  1  0  0  0
 37 38  1  0  0  0
 37 39  2  0  0  0
 38 40  1  0  0  0
 99100  1  0  0  0
 99101  1  0  0  0
100102  1  0  0  0
M  END
> <minimizedAffinity>
-7.75112

$$$$
