


126129  0  0  0  0  0  0  0  0999 V2000
    1.4955  -22.6658   19.7674 C   0  0  0  0  0  0  0  0  0  0  0  0
    1.0067  -21.8498   20.0757 C   0  0  0  0  0  0  0  0  0  0  0  0
    1.0149  -21.0209   19.5164 C   0  0  0  0  0  0  0  0  0  0  0  0
    0.5260  -20.2048   19.8247 C   0  0  0  0  0  0  0  0  0  0  0  0
    0.0290  -20.2176   20.6924 C   0  0  0  0  0  0  0  0  0  0  0  0
   -0.4598  -19.4015   21.0007 O   0  0  0  0  0  0  0  0  0  0  0  0
    0.0209  -21.0465   21.2517 C   0  0  0  0  0  0  0  0  0  0  0  0
    0.5097  -21.8625   20.9434 C   0  0  0  0  0  0  0  0  0  0  0  0
   -0.4521  -18.6248   20.4766 H   0  0  0  0  0  0  0  0  0  0  0  0
    2.3656  -22.9175   20.1912 C   0  0  0  0  0  0  0  0  0  0  0  0
    2.5646  -22.6355   21.1298 O   0  0  0  0  0  0  0  0  0  0  0  0
    3.0366  -23.4510   19.6765 N   0  0  0  0  0  0  0  0  0  0  0  0
    2.8407  -23.7286   18.7525 H   0  0  0  0  0  0  0  0  0  0  0  0
    3.9068  -23.7027   20.1003 C   0  0  0  0  0  0  0  0  0  0  0  0
    4.7669  -23.5137   19.6265 C   0  0  0  0  0  0  0  0  0  0  0  0
    5.2754  -22.6767   19.8283 O   0  0  0  0  0  0  0  0  0  0  0  0
    5.1184  -24.1618   18.9510 N   0  0  0  0  0  0  0  0  0  0  0  0
    4.6177  -24.9858   18.7523 H   0  0  0  0  0  0  0  0  0  0  0  0
    5.9785  -23.9728   18.4772 C   0  0  0  0  0  0  0  0  0  0  0  0
    5.9688  -23.5278   17.5817 C   0  0  0  0  0  0  0  0  0  0  0  0
    6.4634  -22.6696   17.4444 O   0  0  0  0  0  0  0  0  0  0  0  0
    5.4643  -23.9409   16.8234 N   0  0  0  0  0  0  0  0  0  0  0  0
    4.9774  -24.7858   16.9586 H   0  0  0  0  0  0  0  0  0  0  0  0
    5.4546  -23.4959   15.9280 C   0  0  0  0  0  0  0  0  0  0  0  0
    4.7077  -22.8768   15.6855 C   0  0  0  0  0  0  0  0  0  0  0  0
    3.7809  -23.0587   16.0141 O   0  0  0  0  0  0  0  0  0  0  0  0
    4.8876  -22.0759   15.1144 N   0  0  0  0  0  0  0  0  0  0  0  0
    5.8000  -21.8969   14.7909 H   0  0  0  0  0  0  0  0  0  0  0  0
    4.1406  -21.4568   14.8719 C   0  0  0  0  0  0  0  0  0  0  0  0
    3.5660  -21.6536   14.0775 C   0  0  0  0  0  0  0  0  0  0  0  0
    2.6044  -21.8972   14.2041 O   0  0  0  0  0  0  0  0  0  0  0  0
    3.9529  -21.6069   13.1566 N   0  0  0  0  0  0  0  0  0  0  0  0
    4.8979  -21.3737   12.9272 C   0  0  0  0  0  0  0  0  0  0  0  0
    4.9918  -21.4078   11.9322 C   0  0  0  0  0  0  0  0  0  0  0  0
    4.1048  -21.6621   11.5467 C   0  0  0  0  0  0  0  0  0  0  0  0
    3.4628  -21.7851   12.3034 C   0  0  0  0  0  0  0  0  0  0  0  0
    2.4997  -22.0414   12.2213 C   0  0  0  0  0  0  0  0  0  0  0  0
    2.2412  -23.0063   12.1752 O   0  0  0  0  0  0  0  0  0  0  0  0
    1.7950  -21.3327   12.1853 O   0  0  0  0  0  0  0  0  0  0  0  0
    2.9015  -23.6703   12.2089 H   0  0  0  0  0  0  0  0  0  0  0  0
    3.9684  -20.6408   15.4238 C   0  0  0  0  0  0  0  0  0  0  0  0
    4.7220  -20.0258   15.6558 S   0  0  0  0  0  0  0  0  0  0  0  0
    5.9812  -20.2991   15.2208 H   0  0  0  0  0  0  0  0  0  0  0  0
    6.1917  -23.6700   15.2751 C   0  0  0  0  0  0  0  0  0  0  0  0
    6.2443  -24.5501   14.8033 C   0  0  0  0  0  0  0  0  0  0  0  0
    6.9925  -25.2100   14.8717 C   0  0  0  0  0  0  0  0  0  0  0  0
    6.7685  -25.9926   14.2909 N   0  0  0  0  0  0  0  0  0  0  0  0
    5.8817  -25.8164   13.8635 C   0  0  0  0  0  0  0  0  0  0  0  0
    5.5578  -24.9249   14.1802 N   0  0  0  0  0  0  0  0  0  0  0  0
    4.7115  -24.4922   13.9235 H   0  0  0  0  0  0  0  0  0  0  0  0
    6.8484  -24.2288   18.8988 C   0  0  0  0  0  0  0  0  0  0  0  0
    7.1650  -25.1764   18.8561 C   0  0  0  0  0  0  0  0  0  0  0  0
    7.8277  -25.5128   19.5251 C   0  0  0  0  0  0  0  0  0  0  0  0
    7.7046  -25.3097   20.4965 O   0  0  0  0  0  0  0  0  0  0  0  0
    8.6135  -26.0524   19.2228 N   0  0  0  0  0  0  0  0  0  0  0  0
    8.7346  -26.2524   18.2664 H   0  0  0  0  0  0  0  0  0  0  0  0
    9.2659  -26.3836   19.8815 H   0  0  0  0  0  0  0  0  0  0  0  0
    3.9167  -24.1433   20.9980 C   0  0  0  0  0  0  0  0  0  0  0  0
    3.9950  -25.1380   21.0659 C   0  0  0  0  0  0  0  0  0  0  0  0
    4.3865  -25.5539   21.8867 C   0  0  0  0  0  0  0  0  0  0  0  0
    4.6438  -26.5201   21.8836 C   0  0  0  0  0  0  0  0  0  0  0  0
    5.5785  -26.7894   22.1154 N   0  0  0  0  0  0  0  0  0  0  0  0
    6.2695  -26.0784   22.3552 H   0  0  0  0  0  0  0  0  0  0  0  0
    5.8410  -27.7750   22.1122 H   0  0  0  0  0  0  0  0  0  0  0  0
    0.6054  -24.0617   19.2583 C   0  0  0  0  0  0  0  0  0  0  0  0
    0.4778  -24.3288   20.2136 O   0  0  0  0  0  0  0  0  0  0  0  0
    1.1142  -23.2303   19.0353 N   0  0  0  0  0  0  0  0  0  0  0  0
    1.2399  -22.9674   18.0949 H   0  0  0  0  0  0  0  0  0  0  0  0
    0.2241  -24.6262   18.5262 C   0  0  0  0  0  0  0  0  0  0  0  0
    1.1836  -24.9929   17.1316 C   0  0  0  0  0  0  0  0  0  0  0  0
    0.9631  -24.0977   16.7444 O   0  0  0  0  0  0  0  0  0  0  0  0
    0.8141  -25.2572   18.0225 N   0  0  0  0  0  0  0  0  0  0  0  0
    1.0312  -26.1386   18.4037 H   0  0  0  0  0  0  0  0  0  0  0  0
    1.7736  -25.6239   16.6279 C   0  0  0  0  0  0  0  0  0  0  0  0
    1.2803  -26.4616   15.1944 C   0  0  0  0  0  0  0  0  0  0  0  0
    0.9025  -27.1984   15.7551 O   0  0  0  0  0  0  0  0  0  0  0  0
    1.7159  -25.6744   15.6308 N   0  0  0  0  0  0  0  0  0  0  0  0
    2.0879  -24.9490   15.0789 H   0  0  0  0  0  0  0  0  0  0  0  0
    1.2226  -26.5121   14.1974 C   0  0  0  0  0  0  0  0  0  0  0  0
    2.0581  -26.5577   13.6498 C   0  0  0  0  0  0  0  0  0  0  0  0
    0.0240  -25.7154   13.2338 C   0  0  0  0  0  0  0  0  0  0  0  0
    0.6119  -24.9090   13.1693 O   0  0  0  0  0  0  0  0  0  0  0  0
    0.3294  -26.5169   13.7479 N   0  0  0  0  0  0  0  0  0  0  0  0
   -0.2494  -27.3108   13.8114 H   0  0  0  0  0  0  0  0  0  0  0  0
   -0.8693  -25.7202   12.7842 C   0  0  0  0  0  0  0  0  0  0  0  0
   -2.2466  -25.0743   13.6123 C   0  0  0  0  0  0  0  0  0  0  0  0
   -2.3381  -25.9275   14.1257 O   0  0  0  0  0  0  0  0  0  0  0  0
   -1.5122  -24.9706   12.9416 N   0  0  0  0  0  0  0  0  0  0  0  0
   -1.4221  -24.1306   12.4362 H   0  0  0  0  0  0  0  0  0  0  0  0
   -2.8896  -24.3247   13.7697 C   0  0  0  0  0  0  0  0  0  0  0  0
   -2.1634  -23.0528   14.6943 C   0  0  0  0  0  0  0  0  0  0  0  0
   -2.1062  -23.6610   15.4860 O   0  0  0  0  0  0  0  0  0  0  0  0
   -2.5551  -23.3847   13.8361 N   0  0  0  0  0  0  0  0  0  0  0  0
   -2.6113  -22.7859   13.0566 H   0  0  0  0  0  0  0  0  0  0  0  0
   -2.4722  -21.3486   14.7138 N   0  0  0  0  0  0  0  0  0  0  0  0
   -1.8288  -22.1127   14.7607 C   0  0  0  0  0  0  0  0  0  0  0  0
   -2.1311  -20.3898   14.7815 H   0  0  0  0  0  0  0  0  0  0  0  0
   -3.4697  -21.5281   14.5982 H   0  0  0  0  0  0  0  0  0  0  0  0
   -0.8510  -21.9368   14.8740 C   0  0  0  0  0  0  0  0  0  0  0  0
   -0.1866  -22.4203   14.3040 O   0  0  0  0  0  0  0  0  0  0  0  0
   -0.5375  -21.2774   15.5572 C   0  0  0  0  0  0  0  0  0  0  0  0
   -0.4908  -23.0600   13.6412 H   0  0  0  0  0  0  0  0  0  0  0  0
   -3.8670  -24.5151   13.8606 C   0  0  0  0  0  0  0  0  0  0  0  0
   -4.5331  -23.9596   13.3628 C   0  0  0  0  0  0  0  0  0  0  0  0
   -5.4601  -24.3041   13.2143 C   0  0  0  0  0  0  0  0  0  0  0  0
   -6.0108  -24.6086   13.9914 O   0  0  0  0  0  0  0  0  0  0  0  0
   -5.8364  -24.3439   12.2886 N   0  0  0  0  0  0  0  0  0  0  0  0
   -5.2942  -24.0441   11.5236 H   0  0  0  0  0  0  0  0  0  0  0  0
   -6.7490  -24.6829   12.1425 H   0  0  0  0  0  0  0  0  0  0  0  0
   -1.1196  -26.4745   12.1774 C   0  0  0  0  0  0  0  0  0  0  0  0
   -1.1253  -26.3384   11.1867 C   0  0  0  0  0  0  0  0  0  0  0  0
   -1.3740  -27.0932   10.5798 C   0  0  0  0  0  0  0  0  0  0  0  0
   -0.6836  -27.7628   10.3058 O   0  0  0  0  0  0  0  0  0  0  0  0
   -2.3131  -27.1785   10.2467 N   0  0  0  0  0  0  0  0  0  0  0  0
   -2.9927  -26.5193   10.5164 H   0  0  0  0  0  0  0  0  0  0  0  0
   -2.5578  -27.9217    9.6491 H   0  0  0  0  0  0  0  0  0  0  0  0
    2.4214  -26.2044   17.1213 C   0  0  0  0  0  0  0  0  0  0  0  0
    3.3398  -25.8663   17.3268 O   0  0  0  0  0  0  0  0  0  0  0  0
    3.9681  -26.4295   17.8054 H   0  0  0  0  0  0  0  0  0  0  0  0
   -0.7472  -24.5596   18.2977 C   0  0  0  0  0  0  0  0  0  0  0  0
   -1.3702  -25.3030   18.5412 C   0  0  0  0  0  0  0  0  0  0  0  0
   -1.6881  -26.0275   17.9297 C   0  0  0  0  0  0  0  0  0  0  0  0
   -2.2991  -26.6247   18.4494 N   0  0  0  0  0  0  0  0  0  0  0  0
   -2.3587  -26.2692   19.3822 C   0  0  0  0  0  0  0  0  0  0  0  0
   -1.7847  -25.4523   19.4388 N   0  0  0  0  0  0  0  0  0  0  0  0
   -1.6510  -24.8933   20.2382 H   0  0  0  0  0  0  0  0  0  0  0  0
 95 96  1  0  0  0
 95 97  1  0  0  0
 95 98  1  0  0  0
 96 91  1  0  0  0
 96 99  1  0  0  0
 91 92  2  0  0  0
 91 93  1  0  0  0
 93 90  1  0  0  0
 93 94  1  0  0  0
 90103  1  0  0  0
 90 86  1  0  0  0
103104  1  0  0  0
104105  1  0  0  0
105106  2  0  0  0
105107  1  0  0  0
107108  1  0  0  0
107109  1  0  0  0
 86 87  2  0  0  0
 86 88  1  0  0  0
 88 85  1  0  0  0
 88 89  1  0  0  0
 85110  1  0  0  0
 85 81  1  0  0  0
110111  1  0  0  0
111112  1  0  0  0
112113  2  0  0  0
112114  1  0  0  0
114115  1  0  0  0
114116  1  0  0  0
 81 82  2  0  0  0
 81 83  1  0  0  0
 83 79  1  0  0  0
 83 84  1  0  0  0
 79 80  1  0  0  0
 79 75  1  0  0  0
 75 76  2  0  0  0
 75 77  1  0  0  0
 77 74  1  0  0  0
 77 78  1  0  0  0
 74117  1  0  0  0
 74 70  1  0  0  0
117118  1  0  0  0
118119  1  0  0  0
 70 71  2  0  0  0
 70 72  1  0  0  0
 72 69  1  0  0  0
 72 73  1  0  0  0
 69120  1  0  0  0
 69 65  1  0  0  0
120121  1  0  0  0
121125  1  0  0  0
121122  2  0  0  0
122123  1  0  0  0
123124  2  0  0  0
124125  1  0  0  0
125126  1  0  0  0
 65 66  2  0  0  0
 65 67  1  0  0  0
 67  1  1  0  0  0
 67 68  1  0  0  0
  1  2  1  0  0  0
  1 10  1  0  0  0
  2  8  2  0  0  0
  2  3  1  0  0  0
  3  4  2  0  0  0
  4  5  1  0  0  0
  5  6  1  0  0  0
  5  7  2  0  0  0
  6  9  1  0  0  0
  7  8  1  0  0  0
 10 11  2  0  0  0
 10 12  1  0  0  0
 12 14  1  0  0  0
 12 13  1  0  0  0
 14 58  1  0  0  0
 14 15  1  0  0  0
 58 59  1  0  0  0
 59 60  1  0  0  0
 60 61  1  0  0  0
 61 62  1  0  0  0
 62 63  1  0  0  0
 62 64  1  0  0  0
 15 16  2  0  0  0
 15 17  1  0  0  0
 17 19  1  0  0  0
 17 18  1  0  0  0
 19 51  1  0  0  0
 19 20  1  0  0  0
 51 52  1  0  0  0
 52 53  1  0  0  0
 53 54  2  0  0  0
 53 55  1  0  0  0
 55 56  1  0  0  0
 55 57  1  0  0  0
 20 21  2  0  0  0
 20 22  1  0  0  0
 22 24  1  0  0  0
 22 23  1  0  0  0
 24 44  1  0  0  0
 24 25  1  0  0  0
 44 45  1  0  0  0
 45 49  1  0  0  0
 45 46  2  0  0  0
 46 47  1  0  0  0
 47 48  2  0  0  0
 48 49  1  0  0  0
 49 50  1  0  0  0
 25 26  2  0  0  0
 25 27  1  0  0  0
 27 29  1  0  0  0
 27 28  1  0  0  0
 29 41  1  0  0  0
 29 30  1  0  0  0
 41 42  1  0  0  0
 42 43  1  0  0  0
 30 31  2  0  0  0
 30 32  1  0  0  0
 32 36  1  0  0  0
 32 33  1  0  0  0
 33 34  1  0  0  0
 34 35  1  0  0  0
 35 36  1  0  0  0
 36 37  1  0  0  0
 37 38  1  0  0  0
 37 39  2  0  0  0
 38 40  1  0  0  0
 99100  1  0  0  0
 99101  1  0  0  0
100102  1  0  0  0
M  END
> <minimizedAffinity>
-6.01067

$$$$



126129  0  0  0  0  0  0  0  0999 V2000
   -0.0425  -26.3416   20.2381 C   0  0  0  0  0  0  0  0  0  0  0  0
   -0.5233  -26.9672   20.8524 C   0  0  0  0  0  0  0  0  0  0  0  0
   -0.0057  -27.6107   21.4162 C   0  0  0  0  0  0  0  0  0  0  0  0
   -0.4867  -28.2364   22.0305 C   0  0  0  0  0  0  0  0  0  0  0  0
   -1.4852  -28.2185   22.0809 C   0  0  0  0  0  0  0  0  0  0  0  0
   -1.9661  -28.8441   22.6952 O   0  0  0  0  0  0  0  0  0  0  0  0
   -2.0029  -27.5750   21.5171 C   0  0  0  0  0  0  0  0  0  0  0  0
   -1.5220  -26.9493   20.9028 C   0  0  0  0  0  0  0  0  0  0  0  0
   -1.4811  -29.4471   23.2235 H   0  0  0  0  0  0  0  0  0  0  0  0
    0.6363  -25.7049   20.6041 C   0  0  0  0  0  0  0  0  0  0  0  0
    0.3858  -25.0753   21.3395 O   0  0  0  0  0  0  0  0  0  0  0  0
    1.5654  -25.6978   20.2346 N   0  0  0  0  0  0  0  0  0  0  0  0
    1.8120  -26.3176   19.5105 H   0  0  0  0  0  0  0  0  0  0  0  0
    2.2442  -25.0610   20.6005 C   0  0  0  0  0  0  0  0  0  0  0  0
    2.3599  -24.1595   20.1836 C   0  0  0  0  0  0  0  0  0  0  0  0
    2.2927  -24.0551   19.1914 O   0  0  0  0  0  0  0  0  0  0  0  0
    2.5429  -23.3623   20.7590 N   0  0  0  0  0  0  0  0  0  0  0  0
    2.6091  -23.4651   21.7358 H   0  0  0  0  0  0  0  0  0  0  0  0
    2.6586  -22.4608   20.3421 C   0  0  0  0  0  0  0  0  0  0  0  0
    3.5737  -22.1304   20.1112 C   0  0  0  0  0  0  0  0  0  0  0  0
    4.2815  -22.0848   20.8162 O   0  0  0  0  0  0  0  0  0  0  0  0
    3.7812  -21.8456   19.1753 N   0  0  0  0  0  0  0  0  0  0  0  0
    3.0844  -21.8905   18.4812 H   0  0  0  0  0  0  0  0  0  0  0  0
    4.6963  -21.5153   18.9444 C   0  0  0  0  0  0  0  0  0  0  0  0
    5.3770  -22.1469   18.5732 C   0  0  0  0  0  0  0  0  0  0  0  0
    6.3406  -22.0452   18.8203 O   0  0  0  0  0  0  0  0  0  0  0  0
    5.0940  -22.8801   17.9550 N   0  0  0  0  0  0  0  0  0  0  0  0
    4.1454  -22.9802   17.7117 H   0  0  0  0  0  0  0  0  0  0  0  0
    5.7747  -23.5117   17.5838 C   0  0  0  0  0  0  0  0  0  0  0  0
    6.0218  -23.4682   16.6158 C   0  0  0  0  0  0  0  0  0  0  0  0
    5.3105  -23.5248   15.9152 O   0  0  0  0  0  0  0  0  0  0  0  0
    6.9802  -23.3682   16.3484 N   0  0  0  0  0  0  0  0  0  0  0  0
    7.7603  -23.3033   16.9707 C   0  0  0  0  0  0  0  0  0  0  0  0
    8.5890  -23.2105   16.4186 C   0  0  0  0  0  0  0  0  0  0  0  0
    8.3209  -23.2181   15.4553 C   0  0  0  0  0  0  0  0  0  0  0  0
    7.3267  -23.3155   15.4119 C   0  0  0  0  0  0  0  0  0  0  0  0
    6.7757  -23.3536   14.5783 C   0  0  0  0  0  0  0  0  0  0  0  0
    6.5550  -24.2369   14.1647 O   0  0  0  0  0  0  0  0  0  0  0  0
    6.4453  -22.5083   14.1583 O   0  0  0  0  0  0  0  0  0  0  0  0
    6.8646  -25.0289   14.5583 H   0  0  0  0  0  0  0  0  0  0  0  0
    6.2083  -24.1869   18.1807 C   0  0  0  0  0  0  0  0  0  0  0  0
    5.7180  -25.0220   18.4300 S   0  0  0  0  0  0  0  0  0  0  0  0
    4.4615  -25.2397   17.9574 H   0  0  0  0  0  0  0  0  0  0  0  0
    4.9308  -20.5533   19.0846 C   0  0  0  0  0  0  0  0  0  0  0  0
    4.6673  -19.8700   18.4038 C   0  0  0  0  0  0  0  0  0  0  0  0
    3.8897  -19.2445   18.4692 C   0  0  0  0  0  0  0  0  0  0  0  0
    3.8769  -18.6801   17.6438 N   0  0  0  0  0  0  0  0  0  0  0  0
    4.6464  -18.9568   17.0682 C   0  0  0  0  0  0  0  0  0  0  0  0
    5.1349  -19.6922   17.5380 N   0  0  0  0  0  0  0  0  0  0  0  0
    5.9357  -20.1591   17.2062 H   0  0  0  0  0  0  0  0  0  0  0  0
    1.8591  -21.8896   20.1561 C   0  0  0  0  0  0  0  0  0  0  0  0
    1.4074  -21.4029   20.9039 C   0  0  0  0  0  0  0  0  0  0  0  0
    0.5499  -20.9160   20.7377 C   0  0  0  0  0  0  0  0  0  0  0  0
    0.3760  -20.5001   19.8450 O   0  0  0  0  0  0  0  0  0  0  0  0
   -0.1336  -20.8449   21.4641 N   0  0  0  0  0  0  0  0  0  0  0  0
    0.0377  -21.2544   22.3430 H   0  0  0  0  0  0  0  0  0  0  0  0
   -0.9778  -20.3655   21.3005 H   0  0  0  0  0  0  0  0  0  0  0  0
    2.8073  -25.3259   21.3833 C   0  0  0  0  0  0  0  0  0  0  0  0
    3.5429  -25.9934   21.2670 C   0  0  0  0  0  0  0  0  0  0  0  0
    4.0638  -26.3067   22.0611 C   0  0  0  0  0  0  0  0  0  0  0  0
    5.0633  -26.2801   22.0456 C   0  0  0  0  0  0  0  0  0  0  0  0
    5.5897  -27.0184   22.4673 N   0  0  0  0  0  0  0  0  0  0  0  0
    5.1071  -27.7985   22.9134 H   0  0  0  0  0  0  0  0  0  0  0  0
    6.6092  -26.9913   22.4515 H   0  0  0  0  0  0  0  0  0  0  0  0
    0.1679  -27.0538   18.6734 C   0  0  0  0  0  0  0  0  0  0  0  0
    0.7741  -27.7439   19.0690 O   0  0  0  0  0  0  0  0  0  0  0  0
   -0.2403  -26.3527   19.2580 N   0  0  0  0  0  0  0  0  0  0  0  0
   -0.8369  -25.6733   18.8686 H   0  0  0  0  0  0  0  0  0  0  0  0
   -0.0299  -27.0649   17.6932 C   0  0  0  0  0  0  0  0  0  0  0  0
   -1.6924  -27.0329   17.2086 C   0  0  0  0  0  0  0  0  0  0  0  0
   -1.7778  -28.0026   17.4373 O   0  0  0  0  0  0  0  0  0  0  0  0
   -0.8185  -26.5640   17.3366 N   0  0  0  0  0  0  0  0  0  0  0  0
   -0.7344  -25.6092   17.1115 H   0  0  0  0  0  0  0  0  0  0  0  0
   -2.4811  -26.5320   16.8520 C   0  0  0  0  0  0  0  0  0  0  0  0
   -3.0934  -26.1475   15.2781 C   0  0  0  0  0  0  0  0  0  0  0  0
   -3.8579  -26.7759   15.4221 O   0  0  0  0  0  0  0  0  0  0  0  0
   -2.4050  -26.0255   15.9931 N   0  0  0  0  0  0  0  0  0  0  0  0
   -1.6524  -25.4069   15.8514 H   0  0  0  0  0  0  0  0  0  0  0  0
   -3.0174  -25.6410   14.4192 C   0  0  0  0  0  0  0  0  0  0  0  0
   -3.8426  -25.3348   13.9446 C   0  0  0  0  0  0  0  0  0  0  0  0
   -1.8736  -24.5016   13.7923 C   0  0  0  0  0  0  0  0  0  0  0  0
   -2.5322  -23.7625   13.9339 O   0  0  0  0  0  0  0  0  0  0  0  0
   -2.1162  -25.4408   14.0349 N   0  0  0  0  0  0  0  0  0  0  0  0
   -1.4678  -26.1684   13.8955 H   0  0  0  0  0  0  0  0  0  0  0  0
   -0.9723  -24.3013   13.4079 C   0  0  0  0  0  0  0  0  0  0  0  0
    0.0650  -23.4450   14.4992 C   0  0  0  0  0  0  0  0  0  0  0  0
    0.1422  -24.2637   15.0682 O   0  0  0  0  0  0  0  0  0  0  0  0
   -0.4923  -23.4638   13.6691 N   0  0  0  0  0  0  0  0  0  0  0  0
   -0.5683  -22.6578   13.1090 H   0  0  0  0  0  0  0  0  0  0  0  0
    0.5450  -22.6075   14.7604 C   0  0  0  0  0  0  0  0  0  0  0  0
    1.9556  -22.1289   13.8767 C   0  0  0  0  0  0  0  0  0  0  0  0
    1.3754  -21.7534   13.1539 O   0  0  0  0  0  0  0  0  0  0  0  0
    1.5404  -22.5559   14.6799 N   0  0  0  0  0  0  0  0  0  0  0  0
    2.1116  -22.9256   15.3915 H   0  0  0  0  0  0  0  0  0  0  0  0
    3.4769  -21.5237   14.4421 N   0  0  0  0  0  0  0  0  0  0  0  0
    2.9511  -22.0773   13.7962 C   0  0  0  0  0  0  0  0  0  0  0  0
    4.4922  -21.4711   14.3601 H   0  0  0  0  0  0  0  0  0  0  0  0
    2.9978  -21.0117   15.1829 H   0  0  0  0  0  0  0  0  0  0  0  0
    3.4207  -22.5793   13.0700 C   0  0  0  0  0  0  0  0  0  0  0  0
    3.6278  -23.5506   13.1867 O   0  0  0  0  0  0  0  0  0  0  0  0
    3.6833  -22.1099   12.2269 C   0  0  0  0  0  0  0  0  0  0  0  0
    3.3731  -24.0059   14.0046 H   0  0  0  0  0  0  0  0  0  0  0  0
    0.0296  -21.8217   15.1021 C   0  0  0  0  0  0  0  0  0  0  0  0
   -0.0263  -21.6497   16.0856 C   0  0  0  0  0  0  0  0  0  0  0  0
   -0.0809  -20.7113   16.4268 C   0  0  0  0  0  0  0  0  0  0  0  0
    0.7272  -20.1228   16.4031 O   0  0  0  0  0  0  0  0  0  0  0  0
   -0.9437  -20.3614   16.7919 N   0  0  0  0  0  0  0  0  0  0  0  0
   -1.7392  -20.9408   16.8152 H   0  0  0  0  0  0  0  0  0  0  0  0
   -0.9974  -19.4376   17.1278 H   0  0  0  0  0  0  0  0  0  0  0  0
   -0.5511  -24.9384   12.7625 C   0  0  0  0  0  0  0  0  0  0  0  0
   -0.1470  -24.5965   11.9141 C   0  0  0  0  0  0  0  0  0  0  0  0
    0.5412  -25.1400   11.4336 C   0  0  0  0  0  0  0  0  0  0  0  0
    1.4767  -24.7977   11.3457 O   0  0  0  0  0  0  0  0  0  0  0  0
    0.2940  -26.0259   11.0409 N   0  0  0  0  0  0  0  0  0  0  0  0
   -0.6270  -26.3629   11.1274 H   0  0  0  0  0  0  0  0  0  0  0  0
    0.9716  -26.5610   10.5678 H   0  0  0  0  0  0  0  0  0  0  0  0
   -3.3457  -26.5376   17.3543 C   0  0  0  0  0  0  0  0  0  0  0  0
   -3.4103  -26.0848   18.2436 O   0  0  0  0  0  0  0  0  0  0  0  0
   -4.2491  -26.0902   18.7309 H   0  0  0  0  0  0  0  0  0  0  0  0
    0.5610  -27.5769   17.0696 C   0  0  0  0  0  0  0  0  0  0  0  0
    1.2825  -27.1044   16.5635 C   0  0  0  0  0  0  0  0  0  0  0  0
    1.5787  -27.3117   15.6311 C   0  0  0  0  0  0  0  0  0  0  0  0
    2.3138  -26.6771   15.3921 N   0  0  0  0  0  0  0  0  0  0  0  0
    2.4718  -26.0777   16.1769 C   0  0  0  0  0  0  0  0  0  0  0  0
    1.8344  -26.3419   16.9008 N   0  0  0  0  0  0  0  0  0  0  0  0
    1.7629  -25.9244   17.7895 H   0  0  0  0  0  0  0  0  0  0  0  0
 95 96  1  0  0  0
 95 97  1  0  0  0
 95 98  1  0  0  0
 96 91  1  0  0  0
 96 99  1  0  0  0
 91 92  2  0  0  0
 91 93  1  0  0  0
 93 90  1  0  0  0
 93 94  1  0  0  0
 90103  1  0  0  0
 90 86  1  0  0  0
103104  1  0  0  0
104105  1  0  0  0
105106  2  0  0  0
105107  1  0  0  0
107108  1  0  0  0
107109  1  0  0  0
 86 87  2  0  0  0
 86 88  1  0  0  0
 88 85  1  0  0  0
 88 89  1  0  0  0
 85110  1  0  0  0
 85 81  1  0  0  0
110111  1  0  0  0
111112  1  0  0  0
112113  2  0  0  0
112114  1  0  0  0
114115  1  0  0  0
114116  1  0  0  0
 81 82  2  0  0  0
 81 83  1  0  0  0
 83 79  1  0  0  0
 83 84  1  0  0  0
 79 80  1  0  0  0
 79 75  1  0  0  0
 75 76  2  0  0  0
 75 77  1  0  0  0
 77 74  1  0  0  0
 77 78  1  0  0  0
 74117  1  0  0  0
 74 70  1  0  0  0
117118  1  0  0  0
118119  1  0  0  0
 70 71  2  0  0  0
 70 72  1  0  0  0
 72 69  1  0  0  0
 72 73  1  0  0  0
 69120  1  0  0  0
 69 65  1  0  0  0
120121  1  0  0  0
121125  1  0  0  0
121122  2  0  0  0
122123  1  0  0  0
123124  2  0  0  0
124125  1  0  0  0
125126  1  0  0  0
 65 66  2  0  0  0
 65 67  1  0  0  0
 67  1  1  0  0  0
 67 68  1  0  0  0
  1  2  1  0  0  0
  1 10  1  0  0  0
  2  8  2  0  0  0
  2  3  1  0  0  0
  3  4  2  0  0  0
  4  5  1  0  0  0
  5  6  1  0  0  0
  5  7  2  0  0  0
  6  9  1  0  0  0
  7  8  1  0  0  0
 10 11  2  0  0  0
 10 12  1  0  0  0
 12 14  1  0  0  0
 12 13  1  0  0  0
 14 58  1  0  0  0
 14 15  1  0  0  0
 58 59  1  0  0  0
 59 60  1  0  0  0
 60 61  1  0  0  0
 61 62  1  0  0  0
 62 63  1  0  0  0
 62 64  1  0  0  0
 15 16  2  0  0  0
 15 17  1  0  0  0
 17 19  1  0  0  0
 17 18  1  0  0  0
 19 51  1  0  0  0
 19 20  1  0  0  0
 51 52  1  0  0  0
 52 53  1  0  0  0
 53 54  2  0  0  0
 53 55  1  0  0  0
 55 56  1  0  0  0
 55 57  1  0  0  0
 20 21  2  0  0  0
 20 22  1  0  0  0
 22 24  1  0  0  0
 22 23  1  0  0  0
 24 44  1  0  0  0
 24 25  1  0  0  0
 44 45  1  0  0  0
 45 49  1  0  0  0
 45 46  2  0  0  0
 46 47  1  0  0  0
 47 48  2  0  0  0
 48 49  1  0  0  0
 49 50  1  0  0  0
 25 26  2  0  0  0
 25 27  1  0  0  0
 27 29  1  0  0  0
 27 28  1  0  0  0
 29 41  1  0  0  0
 29 30  1  0  0  0
 41 42  1  0  0  0
 42 43  1  0  0  0
 30 31  2  0  0  0
 30 32  1  0  0  0
 32 36  1  0  0  0
 32 33  1  0  0  0
 33 34  1  0  0  0
 34 35  1  0  0  0
 35 36  1  0  0  0
 36 37  1  0  0  0
 37 38  1  0  0  0
 37 39  2  0  0  0
 38 40  1  0  0  0
 99100  1  0  0  0
 99101  1  0  0  0
100102  1  0  0  0
M  END
> <minimizedAffinity>
-6.00509

$$$$



126129  0  0  0  0  0  0  0  0999 V2000
    4.3658  -20.6006   17.4794 C   0  0  0  0  0  0  0  0  0  0  0  0
    4.6497  -19.6973   17.1578 C   0  0  0  0  0  0  0  0  0  0  0  0
    4.8143  -18.9616   17.8148 C   0  0  0  0  0  0  0  0  0  0  0  0
    5.0982  -18.0582   17.4931 C   0  0  0  0  0  0  0  0  0  0  0  0
    5.2175  -17.8906   16.5145 C   0  0  0  0  0  0  0  0  0  0  0  0
    5.5013  -16.9873   16.1929 O   0  0  0  0  0  0  0  0  0  0  0  0
    5.0529  -18.6263   15.8575 C   0  0  0  0  0  0  0  0  0  0  0  0
    4.7690  -19.5296   16.1791 C   0  0  0  0  0  0  0  0  0  0  0  0
    5.6555  -16.2980   16.8086 H   0  0  0  0  0  0  0  0  0  0  0  0
    3.3966  -20.8466   17.4876 C   0  0  0  0  0  0  0  0  0  0  0  0
    2.7853  -20.4944   16.7789 O   0  0  0  0  0  0  0  0  0  0  0  0
    3.0387  -21.4447   18.2046 N   0  0  0  0  0  0  0  0  0  0  0  0
    3.6405  -21.7914   18.9024 H   0  0  0  0  0  0  0  0  0  0  0  0
    2.0694  -21.6907   18.2130 C   0  0  0  0  0  0  0  0  0  0  0  0
    1.7489  -22.4783   17.6868 C   0  0  0  0  0  0  0  0  0  0  0  0
    2.3921  -23.1952   17.4179 O   0  0  0  0  0  0  0  0  0  0  0  0
    0.7852  -22.5491   17.4295 N   0  0  0  0  0  0  0  0  0  0  0  0
    0.1519  -21.8433   17.6942 H   0  0  0  0  0  0  0  0  0  0  0  0
    0.4647  -23.3367   16.9033 C   0  0  0  0  0  0  0  0  0  0  0  0
    0.2686  -24.2010   17.3664 C   0  0  0  0  0  0  0  0  0  0  0  0
    0.5532  -25.0658   16.9526 O   0  0  0  0  0  0  0  0  0  0  0  0
   -0.2121  -24.2007   18.2433 N   0  0  0  0  0  0  0  0  0  0  0  0
   -0.4923  -23.3494   18.6507 H   0  0  0  0  0  0  0  0  0  0  0  0
   -0.4082  -25.0650   18.7064 C   0  0  0  0  0  0  0  0  0  0  0  0
   -1.3131  -25.4825   18.6237 C   0  0  0  0  0  0  0  0  0  0  0  0
   -2.0997  -25.0651   19.0785 O   0  0  0  0  0  0  0  0  0  0  0  0
   -1.4313  -26.3174   18.0861 N   0  0  0  0  0  0  0  0  0  0  0  0
   -0.6568  -26.7283   17.6383 H   0  0  0  0  0  0  0  0  0  0  0  0
   -2.3362  -26.7349   18.0033 C   0  0  0  0  0  0  0  0  0  0  0  0
   -2.5598  -27.5528   18.5335 C   0  0  0  0  0  0  0  0  0  0  0  0
   -3.3021  -27.5271   19.2031 O   0  0  0  0  0  0  0  0  0  0  0  0
   -2.0412  -28.3964   18.3940 N   0  0  0  0  0  0  0  0  0  0  0  0
   -1.2852  -28.5221   17.7517 C   0  0  0  0  0  0  0  0  0  0  0  0
   -0.9643  -29.4658   17.8332 C   0  0  0  0  0  0  0  0  0  0  0  0
   -1.5221  -29.9231   18.5259 C   0  0  0  0  0  0  0  0  0  0  0  0
   -2.1876  -29.2622   18.8725 C   0  0  0  0  0  0  0  0  0  0  0  0
   -2.8782  -29.4365   19.5743 C   0  0  0  0  0  0  0  0  0  0  0  0
   -2.6802  -29.2307   20.5327 O   0  0  0  0  0  0  0  0  0  0  0  0
   -3.7669  -29.8165   19.3178 O   0  0  0  0  0  0  0  0  0  0  0  0
   -1.8476  -28.8745   20.7730 H   0  0  0  0  0  0  0  0  0  0  0  0
   -3.0174  -26.3345   17.3904 C   0  0  0  0  0  0  0  0  0  0  0  0
   -2.8993  -26.4012   16.3997 S   0  0  0  0  0  0  0  0  0  0  0  0
   -1.8121  -27.0364   15.8858 H   0  0  0  0  0  0  0  0  0  0  0  0
    0.3006  -25.5119   19.2522 C   0  0  0  0  0  0  0  0  0  0  0  0
    0.6202  -25.0884   20.0999 C   0  0  0  0  0  0  0  0  0  0  0  0
    1.5726  -24.9013   20.3408 C   0  0  0  0  0  0  0  0  0  0  0  0
    1.5845  -24.4750   21.2453 N   0  0  0  0  0  0  0  0  0  0  0  0
    0.6395  -24.3987   21.5635 C   0  0  0  0  0  0  0  0  0  0  0  0
    0.0436  -24.7778   20.8555 N   0  0  0  0  0  0  0  0  0  0  0  0
   -0.9385  -24.8351   20.8955 H   0  0  0  0  0  0  0  0  0  0  0  0
    0.3402  -23.2600   15.9140 C   0  0  0  0  0  0  0  0  0  0  0  0
   -0.3287  -22.6161   15.5426 C   0  0  0  0  0  0  0  0  0  0  0  0
   -0.4495  -22.5358   14.5532 C   0  0  0  0  0  0  0  0  0  0  0  0
   -0.5284  -23.3589   13.9907 O   0  0  0  0  0  0  0  0  0  0  0  0
   -0.4915  -21.6325   14.1263 N   0  0  0  0  0  0  0  0  0  0  0  0
   -0.4138  -20.8223   14.6801 H   0  0  0  0  0  0  0  0  0  0  0  0
   -0.6105  -21.5535   13.1522 H   0  0  0  0  0  0  0  0  0  0  0  0
    1.4207  -21.1490   18.7475 C   0  0  0  0  0  0  0  0  0  0  0  0
    1.4559  -21.1697   19.7467 C   0  0  0  0  0  0  0  0  0  0  0  0
    0.8205  -20.6123   20.2811 C   0  0  0  0  0  0  0  0  0  0  0  0
    0.0926  -21.0506   20.8083 C   0  0  0  0  0  0  0  0  0  0  0  0
   -0.1202  -20.7283   21.7307 N   0  0  0  0  0  0  0  0  0  0  0  0
    0.4052  -19.9525   22.1338 H   0  0  0  0  0  0  0  0  0  0  0  0
   -0.8627  -21.1754   22.2685 H   0  0  0  0  0  0  0  0  0  0  0  0
    5.3647  -21.9837   17.1803 C   0  0  0  0  0  0  0  0  0  0  0  0
    4.9928  -22.0521   16.2544 O   0  0  0  0  0  0  0  0  0  0  0  0
    5.0512  -21.2580   17.7927 N   0  0  0  0  0  0  0  0  0  0  0  0
    5.4173  -21.1906   18.7041 H   0  0  0  0  0  0  0  0  0  0  0  0
    6.0500  -22.6410   17.4936 C   0  0  0  0  0  0  0  0  0  0  0  0
    7.5643  -22.7130   16.6559 C   0  0  0  0  0  0  0  0  0  0  0  0
    7.8709  -21.8932   17.1395 O   0  0  0  0  0  0  0  0  0  0  0  0
    6.6539  -23.0869   16.8329 N   0  0  0  0  0  0  0  0  0  0  0  0
    6.3521  -23.8941   16.3568 H   0  0  0  0  0  0  0  0  0  0  0  0
    8.1682  -23.1590   15.9952 C   0  0  0  0  0  0  0  0  0  0  0  0
    8.3042  -23.2975   14.2741 C   0  0  0  0  0  0  0  0  0  0  0  0
    9.1696  -22.7973   14.3023 O   0  0  0  0  0  0  0  0  0  0  0  0
    7.8035  -23.4783   15.1206 N   0  0  0  0  0  0  0  0  0  0  0  0
    6.9514  -23.9707   15.0929 H   0  0  0  0  0  0  0  0  0  0  0  0
    7.9395  -23.6168   13.3995 C   0  0  0  0  0  0  0  0  0  0  0  0
    8.4569  -24.2746   12.8522 C   0  0  0  0  0  0  0  0  0  0  0  0
    6.9812  -22.8864   12.1552 C   0  0  0  0  0  0  0  0  0  0  0  0
    7.7873  -22.8329   11.5658 O   0  0  0  0  0  0  0  0  0  0  0  0
    7.0573  -23.2783   13.0721 N   0  0  0  0  0  0  0  0  0  0  0  0
    6.2637  -23.3309   13.6523 H   0  0  0  0  0  0  0  0  0  0  0  0
    6.0990  -22.5479   11.8278 C   0  0  0  0  0  0  0  0  0  0  0  0
    4.5881  -22.7475   12.6508 C   0  0  0  0  0  0  0  0  0  0  0  0
    4.7410  -21.8886   13.1396 O   0  0  0  0  0  0  0  0  0  0  0  0
    5.2671  -23.0771   11.9948 N   0  0  0  0  0  0  0  0  0  0  0  0
    5.1167  -23.9226   11.5135 H   0  0  0  0  0  0  0  0  0  0  0  0
    3.7563  -23.2767   12.8179 C   0  0  0  0  0  0  0  0  0  0  0  0
    3.8094  -24.6443   13.8795 C   0  0  0  0  0  0  0  0  0  0  0  0
    4.1884  -25.2025   13.1414 O   0  0  0  0  0  0  0  0  0  0  0  0
    3.5934  -23.6814   13.7177 N   0  0  0  0  0  0  0  0  0  0  0  0
    3.2203  -23.1317   14.4443 H   0  0  0  0  0  0  0  0  0  0  0  0
    4.0926  -24.6655   15.5881 N   0  0  0  0  0  0  0  0  0  0  0  0
    3.6465  -25.0489   14.7794 C   0  0  0  0  0  0  0  0  0  0  0  0
    3.9265  -25.0782   16.5060 H   0  0  0  0  0  0  0  0  0  0  0  0
    4.7138  -23.8618   15.4951 H   0  0  0  0  0  0  0  0  0  0  0  0
    3.0375  -25.8368   14.8705 C   0  0  0  0  0  0  0  0  0  0  0  0
    2.0876  -25.7725   14.5647 O   0  0  0  0  0  0  0  0  0  0  0  0
    3.3784  -26.6889   15.2675 C   0  0  0  0  0  0  0  0  0  0  0  0
    1.7569  -24.9459   14.1796 H   0  0  0  0  0  0  0  0  0  0  0  0
    3.0873  -23.4013   12.0851 C   0  0  0  0  0  0  0  0  0  0  0  0
    2.2953  -22.7941   12.0226 C   0  0  0  0  0  0  0  0  0  0  0  0
    1.6436  -22.8979   11.2712 C   0  0  0  0  0  0  0  0  0  0  0  0
    1.6835  -22.2800   10.4859 O   0  0  0  0  0  0  0  0  0  0  0  0
    0.9522  -23.6195   11.3050 N   0  0  0  0  0  0  0  0  0  0  0  0
    0.9130  -24.2277   12.0781 H   0  0  0  0  0  0  0  0  0  0  0  0
    0.3107  -23.7217   10.5653 H   0  0  0  0  0  0  0  0  0  0  0  0
    6.0487  -21.6802   11.3333 C   0  0  0  0  0  0  0  0  0  0  0  0
    6.0829  -21.6715   10.3339 C   0  0  0  0  0  0  0  0  0  0  0  0
    5.6993  -20.8995    9.8272 C   0  0  0  0  0  0  0  0  0  0  0  0
    4.7937  -20.9755    9.4101 O   0  0  0  0  0  0  0  0  0  0  0  0
    6.2215  -20.0513    9.7375 N   0  0  0  0  0  0  0  0  0  0  0  0
    7.1131  -19.9764   10.1481 H   0  0  0  0  0  0  0  0  0  0  0  0
    5.8438  -19.2912    9.2386 H   0  0  0  0  0  0  0  0  0  0  0  0
    9.1367  -23.2855   16.2092 C   0  0  0  0  0  0  0  0  0  0  0  0
    9.4260  -24.0516   16.7833 O   0  0  0  0  0  0  0  0  0  0  0  0
   10.3656  -24.1743   16.9908 H   0  0  0  0  0  0  0  0  0  0  0  0
    6.1315  -22.8524   18.4676 C   0  0  0  0  0  0  0  0  0  0  0  0
    5.8987  -23.7655   18.8023 C   0  0  0  0  0  0  0  0  0  0  0  0
    6.5042  -24.3768   19.3119 C   0  0  0  0  0  0  0  0  0  0  0  0
    5.9993  -25.2169   19.5107 N   0  0  0  0  0  0  0  0  0  0  0  0
    5.0817  -25.1247   19.1238 C   0  0  0  0  0  0  0  0  0  0  0  0
    5.0196  -24.2277   18.6860 N   0  0  0  0  0  0  0  0  0  0  0  0
    4.2313  -23.8636   18.2220 H   0  0  0  0  0  0  0  0  0  0  0  0
 95 96  1  0  0  0
 95 97  1  0  0  0
 95 98  1  0  0  0
 96 91  1  0  0  0
 96 99  1  0  0  0
 91 92  2  0  0  0
 91 93  1  0  0  0
 93 90  1  0  0  0
 93 94  1  0  0  0
 90103  1  0  0  0
 90 86  1  0  0  0
103104  1  0  0  0
104105  1  0  0  0
105106  2  0  0  0
105107  1  0  0  0
107108  1  0  0  0
107109  1  0  0  0
 86 87  2  0  0  0
 86 88  1  0  0  0
 88 85  1  0  0  0
 88 89  1  0  0  0
 85110  1  0  0  0
 85 81  1  0  0  0
110111  1  0  0  0
111112  1  0  0  0
112113  2  0  0  0
112114  1  0  0  0
114115  1  0  0  0
114116  1  0  0  0
 81 82  2  0  0  0
 81 83  1  0  0  0
 83 79  1  0  0  0
 83 84  1  0  0  0
 79 80  1  0  0  0
 79 75  1  0  0  0
 75 76  2  0  0  0
 75 77  1  0  0  0
 77 74  1  0  0  0
 77 78  1  0  0  0
 74117  1  0  0  0
 74 70  1  0  0  0
117118  1  0  0  0
118119  1  0  0  0
 70 71  2  0  0  0
 70 72  1  0  0  0
 72 69  1  0  0  0
 72 73  1  0  0  0
 69120  1  0  0  0
 69 65  1  0  0  0
120121  1  0  0  0
121125  1  0  0  0
121122  2  0  0  0
122123  1  0  0  0
123124  2  0  0  0
124125  1  0  0  0
125126  1  0  0  0
 65 66  2  0  0  0
 65 67  1  0  0  0
 67  1  1  0  0  0
 67 68  1  0  0  0
  1  2  1  0  0  0
  1 10  1  0  0  0
  2  8  2  0  0  0
  2  3  1  0  0  0
  3  4  2  0  0  0
  4  5  1  0  0  0
  5  6  1  0  0  0
  5  7  2  0  0  0
  6  9  1  0  0  0
  7  8  1  0  0  0
 10 11  2  0  0  0
 10 12  1  0  0  0
 12 14  1  0  0  0
 12 13  1  0  0  0
 14 58  1  0  0  0
 14 15  1  0  0  0
 58 59  1  0  0  0
 59 60  1  0  0  0
 60 61  1  0  0  0
 61 62  1  0  0  0
 62 63  1  0  0  0
 62 64  1  0  0  0
 15 16  2  0  0  0
 15 17  1  0  0  0
 17 19  1  0  0  0
 17 18  1  0  0  0
 19 51  1  0  0  0
 19 20  1  0  0  0
 51 52  1  0  0  0
 52 53  1  0  0  0
 53 54  2  0  0  0
 53 55  1  0  0  0
 55 56  1  0  0  0
 55 57  1  0  0  0
 20 21  2  0  0  0
 20 22  1  0  0  0
 22 24  1  0  0  0
 22 23  1  0  0  0
 24 44  1  0  0  0
 24 25  1  0  0  0
 44 45  1  0  0  0
 45 49  1  0  0  0
 45 46  2  0  0  0
 46 47  1  0  0  0
 47 48  2  0  0  0
 48 49  1  0  0  0
 49 50  1  0  0  0
 25 26  2  0  0  0
 25 27  1  0  0  0
 27 29  1  0  0  0
 27 28  1  0  0  0
 29 41  1  0  0  0
 29 30  1  0  0  0
 41 42  1  0  0  0
 42 43  1  0  0  0
 30 31  2  0  0  0
 30 32  1  0  0  0
 32 36  1  0  0  0
 32 33  1  0  0  0
 33 34  1  0  0  0
 34 35  1  0  0  0
 35 36  1  0  0  0
 36 37  1  0  0  0
 37 38  1  0  0  0
 37 39  2  0  0  0
 38 40  1  0  0  0
 99100  1  0  0  0
 99101  1  0  0  0
100102  1  0  0  0
M  END
> <minimizedAffinity>
-5.85401

$$$$



126129  0  0  0  0  0  0  0  0999 V2000
    2.3961  -20.6552   16.7617 C   0  0  0  0  0  0  0  0  0  0  0  0
    1.5398  -20.5099   17.2573 C   0  0  0  0  0  0  0  0  0  0  0  0
    1.5363  -20.5002   18.2572 C   0  0  0  0  0  0  0  0  0  0  0  0
    0.6800  -20.3548   18.7529 C   0  0  0  0  0  0  0  0  0  0  0  0
   -0.1728  -20.2193   18.2485 C   0  0  0  0  0  0  0  0  0  0  0  0
   -1.0291  -20.0740   18.7442 O   0  0  0  0  0  0  0  0  0  0  0  0
   -0.1693  -20.2290   17.2486 C   0  0  0  0  0  0  0  0  0  0  0  0
    0.6869  -20.3743   16.7530 C   0  0  0  0  0  0  0  0  0  0  0  0
   -1.0324  -20.0649   19.6811 H   0  0  0  0  0  0  0  0  0  0  0  0
    3.2705  -20.4649   17.2079 C   0  0  0  0  0  0  0  0  0  0  0  0
    3.3579  -20.5634   18.1992 O   0  0  0  0  0  0  0  0  0  0  0  0
    4.0576  -20.1761   16.6628 N   0  0  0  0  0  0  0  0  0  0  0  0
    3.9715  -20.0792   15.6869 H   0  0  0  0  0  0  0  0  0  0  0  0
    4.9321  -19.9858   17.1090 C   0  0  0  0  0  0  0  0  0  0  0  0
    5.5482  -20.7379   17.3429 C   0  0  0  0  0  0  0  0  0  0  0  0
    6.0900  -20.6977   18.1825 O   0  0  0  0  0  0  0  0  0  0  0  0
    5.6226  -21.5301   16.7373 N   0  0  0  0  0  0  0  0  0  0  0  0
    5.0893  -21.5696   15.9107 H   0  0  0  0  0  0  0  0  0  0  0  0
    6.2387  -22.2822   16.9712 C   0  0  0  0  0  0  0  0  0  0  0  0
    5.8757  -23.1134   17.3923 C   0  0  0  0  0  0  0  0  0  0  0  0
    5.3522  -23.7646   16.8430 O   0  0  0  0  0  0  0  0  0  0  0  0
    6.0362  -23.2933   18.3629 N   0  0  0  0  0  0  0  0  0  0  0  0
    6.5516  -22.6522   18.9037 H   0  0  0  0  0  0  0  0  0  0  0  0
    5.6732  -24.1245   18.7840 C   0  0  0  0  0  0  0  0  0  0  0  0
    6.2872  -24.8822   19.0051 C   0  0  0  0  0  0  0  0  0  0  0  0
    6.9492  -24.7885   19.7488 O   0  0  0  0  0  0  0  0  0  0  0  0
    6.2393  -25.7334   18.4826 N   0  0  0  0  0  0  0  0  0  0  0  0
    5.5876  -25.8256   17.7505 H   0  0  0  0  0  0  0  0  0  0  0  0
    6.8533  -26.4911   18.7037 C   0  0  0  0  0  0  0  0  0  0  0  0
    7.6899  -26.6278   18.1732 C   0  0  0  0  0  0  0  0  0  0  0  0
    8.5814  -26.5765   18.6234 O   0  0  0  0  0  0  0  0  0  0  0  0
    7.6350  -26.8159   17.1926 N   0  0  0  0  0  0  0  0  0  0  0  0
    6.7956  -26.8865   16.6537 C   0  0  0  0  0  0  0  0  0  0  0  0
    7.0518  -27.0806   15.7068 C   0  0  0  0  0  0  0  0  0  0  0  0
    8.0494  -27.1299   15.6604 C   0  0  0  0  0  0  0  0  0  0  0  0
    8.4099  -26.9663   16.5787 C   0  0  0  0  0  0  0  0  0  0  0  0
    9.3757  -26.9551   16.8376 C   0  0  0  0  0  0  0  0  0  0  0  0
    9.8152  -27.7915   17.1654 O   0  0  0  0  0  0  0  0  0  0  0  0
    9.9021  -26.1076   16.7687 O   0  0  0  0  0  0  0  0  0  0  0  0
    9.3220  -28.5855   17.2300 H   0  0  0  0  0  0  0  0  0  0  0  0
    6.6308  -27.1121   19.4554 C   0  0  0  0  0  0  0  0  0  0  0  0
    5.8872  -27.7730   19.3544 S   0  0  0  0  0  0  0  0  0  0  0  0
    5.1785  -27.8274   18.1949 H   0  0  0  0  0  0  0  0  0  0  0  0
    4.6962  -24.1980   18.9840 C   0  0  0  0  0  0  0  0  0  0  0  0
    4.3193  -23.7645   19.8025 C   0  0  0  0  0  0  0  0  0  0  0  0
    3.7214  -24.1995   20.4758 C   0  0  0  0  0  0  0  0  0  0  0  0
    3.5068  -23.5237   21.1809 N   0  0  0  0  0  0  0  0  0  0  0  0
    3.9721  -22.6709   20.9434 C   0  0  0  0  0  0  0  0  0  0  0  0
    4.4742  -22.8198   20.0915 N   0  0  0  0  0  0  0  0  0  0  0  0
    5.0245  -22.1532   19.6201 H   0  0  0  0  0  0  0  0  0  0  0  0
    7.2179  -22.2031   16.7840 C   0  0  0  0  0  0  0  0  0  0  0  0
    7.6047  -22.6189   15.9609 C   0  0  0  0  0  0  0  0  0  0  0  0
    8.5731  -22.8670   15.9339 C   0  0  0  0  0  0  0  0  0  0  0  0
    9.2270  -22.3942   16.5246 O   0  0  0  0  0  0  0  0  0  0  0  0
    8.8875  -23.5878   15.3162 N   0  0  0  0  0  0  0  0  0  0  0  0
    8.2437  -24.0532   14.7347 H   0  0  0  0  0  0  0  0  0  0  0  0
    9.8409  -23.8320   15.2896 H   0  0  0  0  0  0  0  0  0  0  0  0
    5.1904  -19.0433   17.3212 C   0  0  0  0  0  0  0  0  0  0  0  0
    5.2487  -18.3640   16.5896 C   0  0  0  0  0  0  0  0  0  0  0  0
    5.4771  -17.4148   16.8058 C   0  0  0  0  0  0  0  0  0  0  0  0
    6.4269  -17.1056   16.7574 C   0  0  0  0  0  0  0  0  0  0  0  0
    6.6608  -16.2895   16.2290 N   0  0  0  0  0  0  0  0  0  0  0  0
    5.9306  -15.7724   15.7392 H   0  0  0  0  0  0  0  0  0  0  0  0
    7.6295  -15.9742   16.1797 H   0  0  0  0  0  0  0  0  0  0  0  0
    2.4850  -21.9677   15.6350 C   0  0  0  0  0  0  0  0  0  0  0  0
    2.6102  -22.6091   16.3920 O   0  0  0  0  0  0  0  0  0  0  0  0
    2.3779  -20.9908   15.8198 N   0  0  0  0  0  0  0  0  0  0  0  0
    2.2547  -20.3594   15.0746 H   0  0  0  0  0  0  0  0  0  0  0  0
    2.4668  -22.3033   14.6932 C   0  0  0  0  0  0  0  0  0  0  0  0
    1.0329  -22.9279   13.9490 C   0  0  0  0  0  0  0  0  0  0  0  0
    0.7627  -22.0003   13.6911 O   0  0  0  0  0  0  0  0  0  0  0  0
    1.8850  -23.0794   14.4501 N   0  0  0  0  0  0  0  0  0  0  0  0
    2.1510  -23.9927   14.7040 H   0  0  0  0  0  0  0  0  0  0  0  0
    0.4510  -23.7040   13.7059 C   0  0  0  0  0  0  0  0  0  0  0  0
   -0.8684  -24.1815   14.7213 C   0  0  0  0  0  0  0  0  0  0  0  0
   -0.2365  -24.6968   15.3001 O   0  0  0  0  0  0  0  0  0  0  0  0
   -0.5247  -23.6851   13.9242 N   0  0  0  0  0  0  0  0  0  0  0  0
   -1.1468  -23.1778   13.3543 H   0  0  0  0  0  0  0  0  0  0  0  0
   -1.8441  -24.1627   14.9395 C   0  0  0  0  0  0  0  0  0  0  0  0
   -2.4701  -23.6145   14.3848 C   0  0  0  0  0  0  0  0  0  0  0  0
   -2.7113  -25.5320   15.5500 C   0  0  0  0  0  0  0  0  0  0  0  0
   -2.8790  -25.8429   14.6144 O   0  0  0  0  0  0  0  0  0  0  0  0
   -2.1939  -24.6919   15.7125 N   0  0  0  0  0  0  0  0  0  0  0  0
   -2.0289  -24.3858   16.6336 H   0  0  0  0  0  0  0  0  0  0  0  0
   -3.0612  -26.0613   16.3230 C   0  0  0  0  0  0  0  0  0  0  0  0
   -1.9765  -26.4905   17.6033 C   0  0  0  0  0  0  0  0  0  0  0  0
   -1.6139  -27.2373   17.0458 O   0  0  0  0  0  0  0  0  0  0  0  0
   -2.7001  -25.9025   17.2419 N   0  0  0  0  0  0  0  0  0  0  0  0
   -3.0571  -25.1673   17.7908 H   0  0  0  0  0  0  0  0  0  0  0  0
   -1.6154  -26.3317   18.5223 C   0  0  0  0  0  0  0  0  0  0  0  0
   -2.1441  -27.3049   19.8539 C   0  0  0  0  0  0  0  0  0  0  0  0
   -2.9620  -26.7367   19.9445 O   0  0  0  0  0  0  0  0  0  0  0  0
   -1.4709  -27.1024   19.1428 N   0  0  0  0  0  0  0  0  0  0  0  0
   -0.6656  -27.6618   19.0535 H   0  0  0  0  0  0  0  0  0  0  0  0
   -1.7974  -28.9832   20.1059 N   0  0  0  0  0  0  0  0  0  0  0  0
   -1.9995  -28.0758   20.4744 C   0  0  0  0  0  0  0  0  0  0  0  0
   -1.6499  -29.7694   20.7387 H   0  0  0  0  0  0  0  0  0  0  0  0
   -1.7389  -29.1225   19.0971 H   0  0  0  0  0  0  0  0  0  0  0  0
   -2.0569  -27.9391   21.4633 C   0  0  0  0  0  0  0  0  0  0  0  0
   -1.3935  -27.3512   21.9262 O   0  0  0  0  0  0  0  0  0  0  0  0
   -2.7777  -28.3904   21.9894 C   0  0  0  0  0  0  0  0  0  0  0  0
   -0.6943  -26.9134   21.4159 H   0  0  0  0  0  0  0  0  0  0  0  0
   -1.3990  -25.4021   18.8207 C   0  0  0  0  0  0  0  0  0  0  0  0
   -0.4502  -25.0864   18.8243 C   0  0  0  0  0  0  0  0  0  0  0  0
   -0.2463  -24.1141   18.7093 C   0  0  0  0  0  0  0  0  0  0  0  0
   -0.8955  -23.4255   19.0323 O   0  0  0  0  0  0  0  0  0  0  0  0
    0.6068  -23.8305   18.2713 N   0  0  0  0  0  0  0  0  0  0  0  0
    1.2459  -24.5085   17.9533 H   0  0  0  0  0  0  0  0  0  0  0  0
    0.8075  -22.8734   18.1582 H   0  0  0  0  0  0  0  0  0  0  0  0
   -3.7720  -26.7494   16.1771 C   0  0  0  0  0  0  0  0  0  0  0  0
   -4.6899  -26.6061   16.5469 C   0  0  0  0  0  0  0  0  0  0  0  0
   -5.4033  -27.2897   16.3928 C   0  0  0  0  0  0  0  0  0  0  0  0
   -5.2172  -28.0856   15.8167 O   0  0  0  0  0  0  0  0  0  0  0  0
   -6.3030  -27.1774   16.8148 N   0  0  0  0  0  0  0  0  0  0  0  0
   -6.4863  -26.3938   17.3820 H   0  0  0  0  0  0  0  0  0  0  0  0
   -7.0054  -27.8504   16.6631 H   0  0  0  0  0  0  0  0  0  0  0  0
    0.8449  -24.4990   13.2446 C   0  0  0  0  0  0  0  0  0  0  0  0
    0.9138  -24.5149   12.2471 O   0  0  0  0  0  0  0  0  0  0  0  0
    1.2958  -25.2861   11.7995 H   0  0  0  0  0  0  0  0  0  0  0  0
    3.0306  -21.8628   13.9944 C   0  0  0  0  0  0  0  0  0  0  0  0
    3.9115  -22.2608   13.7387 C   0  0  0  0  0  0  0  0  0  0  0  0
    4.6576  -21.7860   13.2719 C   0  0  0  0  0  0  0  0  0  0  0  0
    5.4084  -22.4352   13.1495 N   0  0  0  0  0  0  0  0  0  0  0  0
    5.1262  -23.3113   13.5406 C   0  0  0  0  0  0  0  0  0  0  0  0
    4.2011  -23.2034   13.9048 N   0  0  0  0  0  0  0  0  0  0  0  0
    3.6688  -23.9025   14.3488 H   0  0  0  0  0  0  0  0  0  0  0  0
 95 96  1  0  0  0
 95 97  1  0  0  0
 95 98  1  0  0  0
 96 91  1  0  0  0
 96 99  1  0  0  0
 91 92  2  0  0  0
 91 93  1  0  0  0
 93 90  1  0  0  0
 93 94  1  0  0  0
 90103  1  0  0  0
 90 86  1  0  0  0
103104  1  0  0  0
104105  1  0  0  0
105106  2  0  0  0
105107  1  0  0  0
107108  1  0  0  0
107109  1  0  0  0
 86 87  2  0  0  0
 86 88  1  0  0  0
 88 85  1  0  0  0
 88 89  1  0  0  0
 85110  1  0  0  0
 85 81  1  0  0  0
110111  1  0  0  0
111112  1  0  0  0
112113  2  0  0  0
112114  1  0  0  0
114115  1  0  0  0
114116  1  0  0  0
 81 82  2  0  0  0
 81 83  1  0  0  0
 83 79  1  0  0  0
 83 84  1  0  0  0
 79 80  1  0  0  0
 79 75  1  0  0  0
 75 76  2  0  0  0
 75 77  1  0  0  0
 77 74  1  0  0  0
 77 78  1  0  0  0
 74117  1  0  0  0
 74 70  1  0  0  0
117118  1  0  0  0
118119  1  0  0  0
 70 71  2  0  0  0
 70 72  1  0  0  0
 72 69  1  0  0  0
 72 73  1  0  0  0
 69120  1  0  0  0
 69 65  1  0  0  0
120121  1  0  0  0
121125  1  0  0  0
121122  2  0  0  0
122123  1  0  0  0
123124  2  0  0  0
124125  1  0  0  0
125126  1  0  0  0
 65 66  2  0  0  0
 65 67  1  0  0  0
 67  1  1  0  0  0
 67 68  1  0  0  0
  1  2  1  0  0  0
  1 10  1  0  0  0
  2  8  2  0  0  0
  2  3  1  0  0  0
  3  4  2  0  0  0
  4  5  1  0  0  0
  5  6  1  0  0  0
  5  7  2  0  0  0
  6  9  1  0  0  0
  7  8  1  0  0  0
 10 11  2  0  0  0
 10 12  1  0  0  0
 12 14  1  0  0  0
 12 13  1  0  0  0
 14 58  1  0  0  0
 14 15  1  0  0  0
 58 59  1  0  0  0
 59 60  1  0  0  0
 60 61  1  0  0  0
 61 62  1  0  0  0
 62 63  1  0  0  0
 62 64  1  0  0  0
 15 16  2  0  0  0
 15 17  1  0  0  0
 17 19  1  0  0  0
 17 18  1  0  0  0
 19 51  1  0  0  0
 19 20  1  0  0  0
 51 52  1  0  0  0
 52 53  1  0  0  0
 53 54  2  0  0  0
 53 55  1  0  0  0
 55 56  1  0  0  0
 55 57  1  0  0  0
 20 21  2  0  0  0
 20 22  1  0  0  0
 22 24  1  0  0  0
 22 23  1  0  0  0
 24 44  1  0  0  0
 24 25  1  0  0  0
 44 45  1  0  0  0
 45 49  1  0  0  0
 45 46  2  0  0  0
 46 47  1  0  0  0
 47 48  2  0  0  0
 48 49  1  0  0  0
 49 50  1  0  0  0
 25 26  2  0  0  0
 25 27  1  0  0  0
 27 29  1  0  0  0
 27 28  1  0  0  0
 29 41  1  0  0  0
 29 30  1  0  0  0
 41 42  1  0  0  0
 42 43  1  0  0  0
 30 31  2  0  0  0
 30 32  1  0  0  0
 32 36  1  0  0  0
 32 33  1  0  0  0
 33 34  1  0  0  0
 34 35  1  0  0  0
 35 36  1  0  0  0
 36 37  1  0  0  0
 37 38  1  0  0  0
 37 39  2  0  0  0
 38 40  1  0  0  0
 99100  1  0  0  0
 99101  1  0  0  0
100102  1  0  0  0
M  END
> <minimizedAffinity>
-5.84030

$$$$



126129  0  0  0  0  0  0  0  0999 V2000
    5.5002  -23.5200   15.9848 C   0  0  0  0  0  0  0  0  0  0  0  0
    6.4861  -23.4195   16.1180 C   0  0  0  0  0  0  0  0  0  0  0  0
    6.8373  -22.9962   16.9531 C   0  0  0  0  0  0  0  0  0  0  0  0
    7.8233  -22.8957   17.0863 C   0  0  0  0  0  0  0  0  0  0  0  0
    8.4581  -23.2185   16.3844 C   0  0  0  0  0  0  0  0  0  0  0  0
    9.4441  -23.1180   16.5176 O   0  0  0  0  0  0  0  0  0  0  0  0
    8.1070  -23.6419   15.5492 C   0  0  0  0  0  0  0  0  0  0  0  0
    7.1211  -23.7424   15.4160 C   0  0  0  0  0  0  0  0  0  0  0  0
    9.7731  -22.7214   17.3001 H   0  0  0  0  0  0  0  0  0  0  0  0
    5.0763  -24.4233   16.0507 C   0  0  0  0  0  0  0  0  0  0  0  0
    5.5843  -25.2361   15.7655 O   0  0  0  0  0  0  0  0  0  0  0  0
    4.1444  -24.5138   16.4018 N   0  0  0  0  0  0  0  0  0  0  0  0
    3.6442  -23.7137   16.6826 H   0  0  0  0  0  0  0  0  0  0  0  0
    3.7204  -25.4172   16.4678 C   0  0  0  0  0  0  0  0  0  0  0  0
    3.6179  -25.8575   17.3597 C   0  0  0  0  0  0  0  0  0  0  0  0
    2.9242  -25.5311   18.0017 O   0  0  0  0  0  0  0  0  0  0  0  0
    4.2092  -26.6243   17.6096 N   0  0  0  0  0  0  0  0  0  0  0  0
    4.8922  -26.9456   16.9775 H   0  0  0  0  0  0  0  0  0  0  0  0
    4.1068  -27.0647   18.5016 C   0  0  0  0  0  0  0  0  0  0  0  0
    3.7488  -27.9964   18.5610 C   0  0  0  0  0  0  0  0  0  0  0  0
    4.2574  -28.7545   18.1527 O   0  0  0  0  0  0  0  0  0  0  0  0
    2.8820  -28.1702   19.0286 N   0  0  0  0  0  0  0  0  0  0  0  0
    2.3813  -27.4239   19.4305 H   0  0  0  0  0  0  0  0  0  0  0  0
    2.5240  -29.1020   19.0880 C   0  0  0  0  0  0  0  0  0  0  0  0
    1.8705  -29.4309   18.4063 C   0  0  0  0  0  0  0  0  0  0  0  0
    1.7110  -30.4123   18.2992 O   0  0  0  0  0  0  0  0  0  0  0  0
    1.3765  -28.7784   17.8316 N   0  0  0  0  0  0  0  0  0  0  0  0
    1.5335  -27.8123   17.9370 H   0  0  0  0  0  0  0  0  0  0  0  0
    0.7230  -29.1073   17.1499 C   0  0  0  0  0  0  0  0  0  0  0  0
   -0.2519  -28.9119   17.2567 C   0  0  0  0  0  0  0  0  0  0  0  0
   -0.8753  -29.6312   17.5634 O   0  0  0  0  0  0  0  0  0  0  0  0
   -0.6034  -27.9973   17.0568 N   0  0  0  0  0  0  0  0  0  0  0  0
   -0.0634  -27.2151   16.7461 C   0  0  0  0  0  0  0  0  0  0  0  0
   -0.6829  -26.4387   16.6298 C   0  0  0  0  0  0  0  0  0  0  0  0
   -1.6056  -26.7411   16.8686 C   0  0  0  0  0  0  0  0  0  0  0  0
   -1.5565  -27.7044   17.1325 C   0  0  0  0  0  0  0  0  0  0  0  0
   -2.3255  -28.2746   17.4213 C   0  0  0  0  0  0  0  0  0  0  0  0
   -2.5875  -28.3097   18.3858 O   0  0  0  0  0  0  0  0  0  0  0  0
   -2.8326  -28.8099   16.7457 O   0  0  0  0  0  0  0  0  0  0  0  0
   -2.1123  -27.8082   19.0188 H   0  0  0  0  0  0  0  0  0  0  0  0
    1.0444  -29.6316   16.3612 C   0  0  0  0  0  0  0  0  0  0  0  0
    1.5626  -29.1776   15.6365 S   0  0  0  0  0  0  0  0  0  0  0  0
    1.8303  -27.8470   15.7233 H   0  0  0  0  0  0  0  0  0  0  0  0
    2.8194  -29.7049   19.8291 C   0  0  0  0  0  0  0  0  0  0  0  0
    2.5027  -29.5411   20.7633 C   0  0  0  0  0  0  0  0  0  0  0  0
    3.0699  -29.2503   21.5338 C   0  0  0  0  0  0  0  0  0  0  0  0
    2.4809  -29.1687   22.3378 N   0  0  0  0  0  0  0  0  0  0  0  0
    1.5495  -29.4092   22.0642 C   0  0  0  0  0  0  0  0  0  0  0  0
    1.5631  -29.6393   21.0911 N   0  0  0  0  0  0  0  0  0  0  0  0
    0.7874  -29.9143   20.5507 H   0  0  0  0  0  0  0  0  0  0  0  0
    4.3624  -26.5732   19.3341 C   0  0  0  0  0  0  0  0  0  0  0  0
    5.3067  -26.6025   19.6621 C   0  0  0  0  0  0  0  0  0  0  0  0
    5.5825  -26.0416   20.4426 C   0  0  0  0  0  0  0  0  0  0  0  0
    5.4265  -26.3700   21.3743 O   0  0  0  0  0  0  0  0  0  0  0  0
    6.0143  -25.1524   20.2916 N   0  0  0  0  0  0  0  0  0  0  0  0
    6.1678  -24.8292   19.3744 H   0  0  0  0  0  0  0  0  0  0  0  0
    6.2858  -24.6001   21.0601 H   0  0  0  0  0  0  0  0  0  0  0  0
    3.3988  -25.8801   15.6418 C   0  0  0  0  0  0  0  0  0  0  0  0
    2.6523  -25.4854   15.1059 C   0  0  0  0  0  0  0  0  0  0  0  0
    2.2847  -25.9818   14.3195 C   0  0  0  0  0  0  0  0  0  0  0  0
    2.2194  -25.5307   13.4294 C   0  0  0  0  0  0  0  0  0  0  0  0
    1.3307  -25.4358   12.9809 N   0  0  0  0  0  0  0  0  0  0  0  0
    0.4907  -25.7992   13.4313 H   0  0  0  0  0  0  0  0  0  0  0  0
    1.2641  -24.9756   12.0731 H   0  0  0  0  0  0  0  0  0  0  0  0
    4.7460  -22.4642   14.8375 C   0  0  0  0  0  0  0  0  0  0  0  0
    5.1159  -23.0139   14.0884 O   0  0  0  0  0  0  0  0  0  0  0  0
    4.9381  -22.7173   15.7856 N   0  0  0  0  0  0  0  0  0  0  0  0
    4.5740  -22.1762   16.5230 H   0  0  0  0  0  0  0  0  0  0  0  0
    4.1839  -21.6614   14.6383 C   0  0  0  0  0  0  0  0  0  0  0  0
    4.3035  -20.2505   15.6359 C   0  0  0  0  0  0  0  0  0  0  0  0
    5.1223  -19.9670   15.1367 O   0  0  0  0  0  0  0  0  0  0  0  0
    3.8343  -21.0977   15.3867 N   0  0  0  0  0  0  0  0  0  0  0  0
    3.0281  -21.3769   15.8780 H   0  0  0  0  0  0  0  0  0  0  0  0
    3.9539  -19.6868   16.3842 C   0  0  0  0  0  0  0  0  0  0  0  0
    2.9312  -20.1398   17.7067 C   0  0  0  0  0  0  0  0  0  0  0  0
    3.7356  -20.2524   18.2900 O   0  0  0  0  0  0  0  0  0  0  0  0
    3.0404  -19.8570   16.7537 N   0  0  0  0  0  0  0  0  0  0  0  0
    2.2486  -19.7461   16.1794 H   0  0  0  0  0  0  0  0  0  0  0  0
    2.0177  -20.3099   18.0762 C   0  0  0  0  0  0  0  0  0  0  0  0
    1.5174  -19.5735   18.5315 C   0  0  0  0  0  0  0  0  0  0  0  0
    0.6401  -21.3050   17.7418 C   0  0  0  0  0  0  0  0  0  0  0  0
    0.0887  -20.4868   17.5788 O   0  0  0  0  0  0  0  0  0  0  0  0
    1.6046  -21.2165   17.9905 N   0  0  0  0  0  0  0  0  0  0  0  0
    2.1474  -22.0220   18.1510 H   0  0  0  0  0  0  0  0  0  0  0  0
    0.2269  -22.2116   17.6561 C   0  0  0  0  0  0  0  0  0  0  0  0
   -0.0720  -23.1150   19.1033 C   0  0  0  0  0  0  0  0  0  0  0  0
   -0.8853  -22.5610   19.2811 O   0  0  0  0  0  0  0  0  0  0  0  0
    0.4841  -22.9403   18.2908 N   0  0  0  0  0  0  0  0  0  0  0  0
    1.2847  -23.4857   18.1157 H   0  0  0  0  0  0  0  0  0  0  0  0
    0.1852  -23.8437   19.7381 C   0  0  0  0  0  0  0  0  0  0  0  0
    1.6208  -23.4983   20.6433 C   0  0  0  0  0  0  0  0  0  0  0  0
    1.1266  -22.7997   21.1606 O   0  0  0  0  0  0  0  0  0  0  0  0
    1.1501  -24.0203   19.9320 N   0  0  0  0  0  0  0  0  0  0  0  0
    1.6367  -24.7082   19.4227 H   0  0  0  0  0  0  0  0  0  0  0  0
    2.8470  -24.4562   21.4043 N   0  0  0  0  0  0  0  0  0  0  0  0
    2.5859  -23.6750   20.8373 C   0  0  0  0  0  0  0  0  0  0  0  0
    3.8312  -24.6365   21.6021 H   0  0  0  0  0  0  0  0  0  0  0  0
    2.1290  -25.0729   21.7848 H   0  0  0  0  0  0  0  0  0  0  0  0
    3.2897  -23.0705   20.4642 C   0  0  0  0  0  0  0  0  0  0  0  0
    3.5557  -23.1461   19.5032 O   0  0  0  0  0  0  0  0  0  0  0  0
    3.7275  -22.3904   21.0522 C   0  0  0  0  0  0  0  0  0  0  0  0
    3.1309  -23.8059   18.9329 H   0  0  0  0  0  0  0  0  0  0  0  0
   -0.5226  -24.3957   20.1788 C   0  0  0  0  0  0  0  0  0  0  0  0
   -0.6043  -25.3688   19.9632 C   0  0  0  0  0  0  0  0  0  0  0  0
   -1.3582  -25.9039   20.3445 C   0  0  0  0  0  0  0  0  0  0  0  0
   -2.3041  -25.6354   20.1623 O   0  0  0  0  0  0  0  0  0  0  0  0
   -1.1662  -26.7074   20.9079 N   0  0  0  0  0  0  0  0  0  0  0  0
   -0.2350  -26.9716   21.0873 H   0  0  0  0  0  0  0  0  0  0  0  0
   -1.9084  -27.2341   21.2833 H   0  0  0  0  0  0  0  0  0  0  0  0
   -0.4435  -22.3895   16.9357 C   0  0  0  0  0  0  0  0  0  0  0  0
   -0.1933  -22.9524   16.1479 C   0  0  0  0  0  0  0  0  0  0  0  0
   -0.8409  -23.0762   15.3961 C   0  0  0  0  0  0  0  0  0  0  0  0
   -1.7059  -22.5744   15.3935 O   0  0  0  0  0  0  0  0  0  0  0  0
   -0.6236  -23.7019   14.6468 N   0  0  0  0  0  0  0  0  0  0  0  0
    0.2280  -24.1960   14.6494 H   0  0  0  0  0  0  0  0  0  0  0  0
   -1.2612  -23.8238   13.9066 H   0  0  0  0  0  0  0  0  0  0  0  0
    4.5178  -18.9530   16.7629 C   0  0  0  0  0  0  0  0  0  0  0  0
    4.4864  -18.0388   16.3587 O   0  0  0  0  0  0  0  0  0  0  0  0
    5.0334  -17.3270   16.7261 H   0  0  0  0  0  0  0  0  0  0  0  0
    3.9715  -21.4223   13.6908 C   0  0  0  0  0  0  0  0  0  0  0  0
    3.1039  -21.7097   13.2851 C   0  0  0  0  0  0  0  0  0  0  0  0
    2.2368  -21.8222   13.7703 C   0  0  0  0  0  0  0  0  0  0  0  0
    1.5479  -22.1171   13.1080 N   0  0  0  0  0  0  0  0  0  0  0  0
    1.9894  -22.1867   12.2134 C   0  0  0  0  0  0  0  0  0  0  0  0
    2.9510  -21.9349   12.3229 N   0  0  0  0  0  0  0  0  0  0  0  0
    3.6283  -21.9127   11.6087 H   0  0  0  0  0  0  0  0  0  0  0  0
 95 96  1  0  0  0
 95 97  1  0  0  0
 95 98  1  0  0  0
 96 91  1  0  0  0
 96 99  1  0  0  0
 91 92  2  0  0  0
 91 93  1  0  0  0
 93 90  1  0  0  0
 93 94  1  0  0  0
 90103  1  0  0  0
 90 86  1  0  0  0
103104  1  0  0  0
104105  1  0  0  0
105106  2  0  0  0
105107  1  0  0  0
107108  1  0  0  0
107109  1  0  0  0
 86 87  2  0  0  0
 86 88  1  0  0  0
 88 85  1  0  0  0
 88 89  1  0  0  0
 85110  1  0  0  0
 85 81  1  0  0  0
110111  1  0  0  0
111112  1  0  0  0
112113  2  0  0  0
112114  1  0  0  0
114115  1  0  0  0
114116  1  0  0  0
 81 82  2  0  0  0
 81 83  1  0  0  0
 83 79  1  0  0  0
 83 84  1  0  0  0
 79 80  1  0  0  0
 79 75  1  0  0  0
 75 76  2  0  0  0
 75 77  1  0  0  0
 77 74  1  0  0  0
 77 78  1  0  0  0
 74117  1  0  0  0
 74 70  1  0  0  0
117118  1  0  0  0
118119  1  0  0  0
 70 71  2  0  0  0
 70 72  1  0  0  0
 72 69  1  0  0  0
 72 73  1  0  0  0
 69120  1  0  0  0
 69 65  1  0  0  0
120121  1  0  0  0
121125  1  0  0  0
121122  2  0  0  0
122123  1  0  0  0
123124  2  0  0  0
124125  1  0  0  0
125126  1  0  0  0
 65 66  2  0  0  0
 65 67  1  0  0  0
 67  1  1  0  0  0
 67 68  1  0  0  0
  1  2  1  0  0  0
  1 10  1  0  0  0
  2  8  2  0  0  0
  2  3  1  0  0  0
  3  4  2  0  0  0
  4  5  1  0  0  0
  5  6  1  0  0  0
  5  7  2  0  0  0
  6  9  1  0  0  0
  7  8  1  0  0  0
 10 11  2  0  0  0
 10 12  1  0  0  0
 12 14  1  0  0  0
 12 13  1  0  0  0
 14 58  1  0  0  0
 14 15  1  0  0  0
 58 59  1  0  0  0
 59 60  1  0  0  0
 60 61  1  0  0  0
 61 62  1  0  0  0
 62 63  1  0  0  0
 62 64  1  0  0  0
 15 16  2  0  0  0
 15 17  1  0  0  0
 17 19  1  0  0  0
 17 18  1  0  0  0
 19 51  1  0  0  0
 19 20  1  0  0  0
 51 52  1  0  0  0
 52 53  1  0  0  0
 53 54  2  0  0  0
 53 55  1  0  0  0
 55 56  1  0  0  0
 55 57  1  0  0  0
 20 21  2  0  0  0
 20 22  1  0  0  0
 22 24  1  0  0  0
 22 23  1  0  0  0
 24 44  1  0  0  0
 24 25  1  0  0  0
 44 45  1  0  0  0
 45 49  1  0  0  0
 45 46  2  0  0  0
 46 47  1  0  0  0
 47 48  2  0  0  0
 48 49  1  0  0  0
 49 50  1  0  0  0
 25 26  2  0  0  0
 25 27  1  0  0  0
 27 29  1  0  0  0
 27 28  1  0  0  0
 29 41  1  0  0  0
 29 30  1  0  0  0
 41 42  1  0  0  0
 42 43  1  0  0  0
 30 31  2  0  0  0
 30 32  1  0  0  0
 32 36  1  0  0  0
 32 33  1  0  0  0
 33 34  1  0  0  0
 34 35  1  0  0  0
 35 36  1  0  0  0
 36 37  1  0  0  0
 37 38  1  0  0  0
 37 39  2  0  0  0
 38 40  1  0  0  0
 99100  1  0  0  0
 99101  1  0  0  0
100102  1  0  0  0
M  END
> <minimizedAffinity>
-5.79589

$$$$



126129  0  0  0  0  0  0  0  0999 V2000
    0.5923  -23.1673   16.0907 C   0  0  0  0  0  0  0  0  0  0  0  0
    0.6718  -22.9430   15.1195 C   0  0  0  0  0  0  0  0  0  0  0  0
   -0.1405  -22.9505   14.5364 C   0  0  0  0  0  0  0  0  0  0  0  0
   -0.0609  -22.7262   13.5651 C   0  0  0  0  0  0  0  0  0  0  0  0
    0.8311  -22.4943   13.1769 C   0  0  0  0  0  0  0  0  0  0  0  0
    0.9106  -22.2700   12.2057 O   0  0  0  0  0  0  0  0  0  0  0  0
    1.6434  -22.4868   13.7600 C   0  0  0  0  0  0  0  0  0  0  0  0
    1.5638  -22.7111   14.7313 C   0  0  0  0  0  0  0  0  0  0  0  0
    0.1494  -22.2770   11.6593 H   0  0  0  0  0  0  0  0  0  0  0  0
    0.2248  -24.0543   16.3705 C   0  0  0  0  0  0  0  0  0  0  0  0
    0.7463  -24.8893   16.1952 O   0  0  0  0  0  0  0  0  0  0  0  0
   -0.6640  -24.1062   16.8257 N   0  0  0  0  0  0  0  0  0  0  0  0
   -1.1774  -23.2840   16.9983 H   0  0  0  0  0  0  0  0  0  0  0  0
   -1.0315  -24.9932   17.1055 C   0  0  0  0  0  0  0  0  0  0  0  0
   -0.9986  -25.2674   18.0666 C   0  0  0  0  0  0  0  0  0  0  0  0
   -1.6722  -24.9081   18.7124 O   0  0  0  0  0  0  0  0  0  0  0  0
   -0.2919  -25.9008   18.3819 N   0  0  0  0  0  0  0  0  0  0  0  0
    0.3713  -26.2544   17.7461 H   0  0  0  0  0  0  0  0  0  0  0  0
   -0.2589  -26.1750   19.3430 C   0  0  0  0  0  0  0  0  0  0  0  0
   -0.4160  -27.1295   19.5962 C   0  0  0  0  0  0  0  0  0  0  0  0
    0.3447  -27.7786   19.5961 O   0  0  0  0  0  0  0  0  0  0  0  0
   -1.3339  -27.4350   19.8497 N   0  0  0  0  0  0  0  0  0  0  0  0
   -2.0829  -26.7960   19.8499 H   0  0  0  0  0  0  0  0  0  0  0  0
   -1.4910  -28.3896   20.1030 C   0  0  0  0  0  0  0  0  0  0  0  0
   -1.5643  -28.6455   21.0668 C   0  0  0  0  0  0  0  0  0  0  0  0
   -2.1801  -28.1417   21.6725 O   0  0  0  0  0  0  0  0  0  0  0  0
   -1.0216  -29.4053   21.4251 N   0  0  0  0  0  0  0  0  0  0  0  0
   -0.4153  -29.9012   20.8287 H   0  0  0  0  0  0  0  0  0  0  0  0
   -1.0949  -29.6613   22.3889 C   0  0  0  0  0  0  0  0  0  0  0  0
   -1.7553  -30.3564   22.6729 C   0  0  0  0  0  0  0  0  0  0  0  0
   -2.5460  -30.0979   23.2278 O   0  0  0  0  0  0  0  0  0  0  0  0
   -1.6250  -31.3102   22.4018 N   0  0  0  0  0  0  0  0  0  0  0  0
   -0.8706  -31.6668   21.8507 C   0  0  0  0  0  0  0  0  0  0  0  0
   -1.0056  -32.6517   21.7427 C   0  0  0  0  0  0  0  0  0  0  0  0
   -1.8434  -32.9038   22.2270 C   0  0  0  0  0  0  0  0  0  0  0  0
   -2.2262  -32.0747   22.6344 C   0  0  0  0  0  0  0  0  0  0  0  0
   -3.0632  -32.0197   23.1787 C   0  0  0  0  0  0  0  0  0  0  0  0
   -3.9411  -31.8512   22.7304 O   0  0  0  0  0  0  0  0  0  0  0  0
   -3.0224  -32.1332   24.1715 O   0  0  0  0  0  0  0  0  0  0  0  0
   -3.9793  -31.7449   21.8003 H   0  0  0  0  0  0  0  0  0  0  0  0
   -0.5077  -29.2221   23.0690 C   0  0  0  0  0  0  0  0  0  0  0  0
    0.4852  -29.2272   22.9503 S   0  0  0  0  0  0  0  0  0  0  0  0
    1.0371  -29.8315   21.8641 H   0  0  0  0  0  0  0  0  0  0  0  0
   -1.5749  -29.0881   19.3923 C   0  0  0  0  0  0  0  0  0  0  0  0
   -2.4114  -29.1497   18.8480 C   0  0  0  0  0  0  0  0  0  0  0  0
   -2.5188  -28.8518   17.8994 C   0  0  0  0  0  0  0  0  0  0  0  0
   -3.4612  -29.0380   17.6217 N   0  0  0  0  0  0  0  0  0  0  0  0
   -3.9365  -29.4509   18.3987 C   0  0  0  0  0  0  0  0  0  0  0  0
   -3.2876  -29.5199   19.1566 N   0  0  0  0  0  0  0  0  0  0  0  0
   -3.4781  -29.8878   20.0497 H   0  0  0  0  0  0  0  0  0  0  0  0
   -0.0688  -25.4946   20.0508 C   0  0  0  0  0  0  0  0  0  0  0  0
    0.8762  -25.2544   20.2725 C   0  0  0  0  0  0  0  0  0  0  0  0
    1.1141  -24.9644   21.1995 C   0  0  0  0  0  0  0  0  0  0  0  0
    1.9072  -25.3631   21.6601 O   0  0  0  0  0  0  0  0  0  0  0  0
    0.5589  -24.2757   21.6659 N   0  0  0  0  0  0  0  0  0  0  0  0
   -0.2218  -23.8833   21.2124 H   0  0  0  0  0  0  0  0  0  0  0  0
    0.7931  -23.9902   22.5785 H   0  0  0  0  0  0  0  0  0  0  0  0
   -1.4320  -25.6059   16.4242 C   0  0  0  0  0  0  0  0  0  0  0  0
   -2.3860  -25.4906   16.1473 C   0  0  0  0  0  0  0  0  0  0  0  0
   -2.7879  -26.1064   15.4696 C   0  0  0  0  0  0  0  0  0  0  0  0
   -3.7818  -26.1749   15.3835 C   0  0  0  0  0  0  0  0  0  0  0  0
   -4.2069  -27.0586   15.1876 N   0  0  0  0  0  0  0  0  0  0  0  0
   -3.6268  -27.8901   15.0758 H   0  0  0  0  0  0  0  0  0  0  0  0
   -5.2207  -27.1285   15.0997 H   0  0  0  0  0  0  0  0  0  0  0  0
    0.2576  -21.7752   17.0653 C   0  0  0  0  0  0  0  0  0  0  0  0
   -0.6529  -21.7082   16.6570 O   0  0  0  0  0  0  0  0  0  0  0  0
    0.8801  -22.5047   16.7822 N   0  0  0  0  0  0  0  0  0  0  0  0
    1.7764  -22.5707   17.1841 H   0  0  0  0  0  0  0  0  0  0  0  0
    0.5454  -21.1125   17.7567 C   0  0  0  0  0  0  0  0  0  0  0  0
    1.8793  -20.0758   17.3748 C   0  0  0  0  0  0  0  0  0  0  0  0
    1.2792  -19.5132   16.8061 O   0  0  0  0  0  0  0  0  0  0  0  0
    1.5124  -20.8754   17.8501 N   0  0  0  0  0  0  0  0  0  0  0  0
    2.1031  -21.4293   18.4100 H   0  0  0  0  0  0  0  0  0  0  0  0
    2.8463  -19.8387   17.4682 C   0  0  0  0  0  0  0  0  0  0  0  0
    4.0966  -19.8552   16.2697 C   0  0  0  0  0  0  0  0  0  0  0  0
    3.9669  -18.8748   16.1210 O   0  0  0  0  0  0  0  0  0  0  0  0
    3.5362  -20.3371   16.9433 N   0  0  0  0  0  0  0  0  0  0  0  0
    3.6638  -21.3022   17.0897 H   0  0  0  0  0  0  0  0  0  0  0  0
    4.7865  -20.3536   15.7448 C   0  0  0  0  0  0  0  0  0  0  0  0
    5.0655  -20.0216   14.8437 C   0  0  0  0  0  0  0  0  0  0  0  0
    5.3014  -21.9953   15.5458 C   0  0  0  0  0  0  0  0  0  0  0  0
    4.9941  -21.9763   14.5943 O   0  0  0  0  0  0  0  0  0  0  0  0
    5.1976  -21.1839   16.1210 N   0  0  0  0  0  0  0  0  0  0  0  0
    5.5001  -21.2026   17.0577 H   0  0  0  0  0  0  0  0  0  0  0  0
    5.7125  -22.8257   15.9219 C   0  0  0  0  0  0  0  0  0  0  0  0
    4.7382  -23.7938   16.9772 C   0  0  0  0  0  0  0  0  0  0  0  0
    4.2432  -24.1563   16.1876 O   0  0  0  0  0  0  0  0  0  0  0  0
    5.4729  -23.1285   16.8444 N   0  0  0  0  0  0  0  0  0  0  0  0
    5.9603  -22.7717   17.6217 H   0  0  0  0  0  0  0  0  0  0  0  0
    4.4987  -24.0966   17.8996 C   0  0  0  0  0  0  0  0  0  0  0  0
    4.0696  -22.9774   19.1499 C   0  0  0  0  0  0  0  0  0  0  0  0
    3.1263  -22.9683   18.8180 O   0  0  0  0  0  0  0  0  0  0  0  0
    4.7557  -23.5416   18.6907 N   0  0  0  0  0  0  0  0  0  0  0  0
    5.6844  -23.5506   19.0174 H   0  0  0  0  0  0  0  0  0  0  0  0
    4.9623  -21.6582   19.8303 N   0  0  0  0  0  0  0  0  0  0  0  0
    4.3267  -22.4223   19.9410 C   0  0  0  0  0  0  0  0  0  0  0  0
    5.2246  -21.0920   20.6371 H   0  0  0  0  0  0  0  0  0  0  0  0
    5.3483  -21.4451   18.9105 H   0  0  0  0  0  0  0  0  0  0  0  0
    3.9483  -22.6312   20.8427 C   0  0  0  0  0  0  0  0  0  0  0  0
    4.1859  -23.4892   21.2981 O   0  0  0  0  0  0  0  0  0  0  0  0
    3.3322  -21.9822   21.2890 C   0  0  0  0  0  0  0  0  0  0  0  0
    4.7836  -24.1188   20.8651 H   0  0  0  0  0  0  0  0  0  0  0  0
    4.0020  -24.9546   18.0310 C   0  0  0  0  0  0  0  0  0  0  0  0
    4.4909  -25.7749   18.3277 C   0  0  0  0  0  0  0  0  0  0  0  0
    4.0078  -26.4891   18.8343 C   0  0  0  0  0  0  0  0  0  0  0  0
    4.2246  -26.6533   19.7966 O   0  0  0  0  0  0  0  0  0  0  0  0
    3.3080  -27.0392   18.3785 N   0  0  0  0  0  0  0  0  0  0  0  0
    3.0946  -26.8775   17.4311 H   0  0  0  0  0  0  0  0  0  0  0  0
    2.8325  -27.7423   18.8772 H   0  0  0  0  0  0  0  0  0  0  0  0
    6.3631  -23.3532   15.3757 C   0  0  0  0  0  0  0  0  0  0  0  0
    7.3430  -23.2868   15.5635 C   0  0  0  0  0  0  0  0  0  0  0  0
    7.9986  -23.7537   14.9700 C   0  0  0  0  0  0  0  0  0  0  0  0
    8.1148  -24.7448   15.0356 O   0  0  0  0  0  0  0  0  0  0  0  0
    8.5379  -23.2296   14.3109 N   0  0  0  0  0  0  0  0  0  0  0  0
    8.4235  -22.2539   14.2463 H   0  0  0  0  0  0  0  0  0  0  0  0
    9.1834  -23.6893   13.7266 H   0  0  0  0  0  0  0  0  0  0  0  0
    3.1232  -19.1032   18.0865 C   0  0  0  0  0  0  0  0  0  0  0  0
    3.2140  -19.2812   19.0663 O   0  0  0  0  0  0  0  0  0  0  0  0
    3.4827  -18.5677   19.6661 H   0  0  0  0  0  0  0  0  0  0  0  0
   -0.1338  -20.6870   18.3548 C   0  0  0  0  0  0  0  0  0  0  0  0
   -0.0891  -20.8301   19.3435 C   0  0  0  0  0  0  0  0  0  0  0  0
   -0.3371  -21.6690   19.8278 C   0  0  0  0  0  0  0  0  0  0  0  0
   -0.1898  -21.5168   20.8052 N   0  0  0  0  0  0  0  0  0  0  0  0
    0.1494  -20.5836   20.9248 C   0  0  0  0  0  0  0  0  0  0  0  0
    0.2116  -20.1593   20.0214 N   0  0  0  0  0  0  0  0  0  0  0  0
    0.5155  -19.2421   19.8327 H   0  0  0  0  0  0  0  0  0  0  0  0
 95 96  1  0  0  0
 95 97  1  0  0  0
 95 98  1  0  0  0
 96 91  1  0  0  0
 96 99  1  0  0  0
 91 92  2  0  0  0
 91 93  1  0  0  0
 93 90  1  0  0  0
 93 94  1  0  0  0
 90103  1  0  0  0
 90 86  1  0  0  0
103104  1  0  0  0
104105  1  0  0  0
105106  2  0  0  0
105107  1  0  0  0
107108  1  0  0  0
107109  1  0  0  0
 86 87  2  0  0  0
 86 88  1  0  0  0
 88 85  1  0  0  0
 88 89  1  0  0  0
 85110  1  0  0  0
 85 81  1  0  0  0
110111  1  0  0  0
111112  1  0  0  0
112113  2  0  0  0
112114  1  0  0  0
114115  1  0  0  0
114116  1  0  0  0
 81 82  2  0  0  0
 81 83  1  0  0  0
 83 79  1  0  0  0
 83 84  1  0  0  0
 79 80  1  0  0  0
 79 75  1  0  0  0
 75 76  2  0  0  0
 75 77  1  0  0  0
 77 74  1  0  0  0
 77 78  1  0  0  0
 74117  1  0  0  0
 74 70  1  0  0  0
117118  1  0  0  0
118119  1  0  0  0
 70 71  2  0  0  0
 70 72  1  0  0  0
 72 69  1  0  0  0
 72 73  1  0  0  0
 69120  1  0  0  0
 69 65  1  0  0  0
120121  1  0  0  0
121125  1  0  0  0
121122  2  0  0  0
122123  1  0  0  0
123124  2  0  0  0
124125  1  0  0  0
125126  1  0  0  0
 65 66  2  0  0  0
 65 67  1  0  0  0
 67  1  1  0  0  0
 67 68  1  0  0  0
  1  2  1  0  0  0
  1 10  1  0  0  0
  2  8  2  0  0  0
  2  3  1  0  0  0
  3  4  2  0  0  0
  4  5  1  0  0  0
  5  6  1  0  0  0
  5  7  2  0  0  0
  6  9  1  0  0  0
  7  8  1  0  0  0
 10 11  2  0  0  0
 10 12  1  0  0  0
 12 14  1  0  0  0
 12 13  1  0  0  0
 14 58  1  0  0  0
 14 15  1  0  0  0
 58 59  1  0  0  0
 59 60  1  0  0  0
 60 61  1  0  0  0
 61 62  1  0  0  0
 62 63  1  0  0  0
 62 64  1  0  0  0
 15 16  2  0  0  0
 15 17  1  0  0  0
 17 19  1  0  0  0
 17 18  1  0  0  0
 19 51  1  0  0  0
 19 20  1  0  0  0
 51 52  1  0  0  0
 52 53  1  0  0  0
 53 54  2  0  0  0
 53 55  1  0  0  0
 55 56  1  0  0  0
 55 57  1  0  0  0
 20 21  2  0  0  0
 20 22  1  0  0  0
 22 24  1  0  0  0
 22 23  1  0  0  0
 24 44  1  0  0  0
 24 25  1  0  0  0
 44 45  1  0  0  0
 45 49  1  0  0  0
 45 46  2  0  0  0
 46 47  1  0  0  0
 47 48  2  0  0  0
 48 49  1  0  0  0
 49 50  1  0  0  0
 25 26  2  0  0  0
 25 27  1  0  0  0
 27 29  1  0  0  0
 27 28  1  0  0  0
 29 41  1  0  0  0
 29 30  1  0  0  0
 41 42  1  0  0  0
 42 43  1  0  0  0
 30 31  2  0  0  0
 30 32  1  0  0  0
 32 36  1  0  0  0
 32 33  1  0  0  0
 33 34  1  0  0  0
 34 35  1  0  0  0
 35 36  1  0  0  0
 36 37  1  0  0  0
 37 38  1  0  0  0
 37 39  2  0  0  0
 38 40  1  0  0  0
 99100  1  0  0  0
 99101  1  0  0  0
100102  1  0  0  0
M  END
> <minimizedAffinity>
-5.74622

$$$$



126129  0  0  0  0  0  0  0  0999 V2000
    3.0899  -22.1622   14.1180 C   0  0  0  0  0  0  0  0  0  0  0  0
    3.8650  -22.1162   13.4879 C   0  0  0  0  0  0  0  0  0  0  0  0
    3.9125  -21.3861   12.8061 C   0  0  0  0  0  0  0  0  0  0  0  0
    4.6877  -21.3401   12.1760 C   0  0  0  0  0  0  0  0  0  0  0  0
    5.4153  -22.0241   12.2277 C   0  0  0  0  0  0  0  0  0  0  0  0
    6.1905  -21.9781   11.5976 O   0  0  0  0  0  0  0  0  0  0  0  0
    5.3678  -22.7542   12.9094 C   0  0  0  0  0  0  0  0  0  0  0  0
    4.5927  -22.8002   13.5395 C   0  0  0  0  0  0  0  0  0  0  0  0
    6.2350  -21.2941   10.9588 H   0  0  0  0  0  0  0  0  0  0  0  0
    3.1388  -21.7034   15.0052 C   0  0  0  0  0  0  0  0  0  0  0  0
    2.3069  -21.3464   15.4300 O   0  0  0  0  0  0  0  0  0  0  0  0
    4.0196  -21.6017   15.4675 N   0  0  0  0  0  0  0  0  0  0  0  0
    4.8386  -21.9532   15.0493 H   0  0  0  0  0  0  0  0  0  0  0  0
    4.0686  -21.1429   16.3548 C   0  0  0  0  0  0  0  0  0  0  0  0
    4.2432  -21.6745   17.1836 C   0  0  0  0  0  0  0  0  0  0  0  0
    4.1951  -21.2335   18.0798 O   0  0  0  0  0  0  0  0  0  0  0  0
    4.4658  -22.6470   17.1162 N   0  0  0  0  0  0  0  0  0  0  0  0
    4.5131  -23.0812   16.2339 H   0  0  0  0  0  0  0  0  0  0  0  0
    4.6403  -23.1786   17.9450 C   0  0  0  0  0  0  0  0  0  0  0  0
    3.8850  -23.6371   18.4132 C   0  0  0  0  0  0  0  0  0  0  0  0
    3.8386  -23.6312   19.4121 O   0  0  0  0  0  0  0  0  0  0  0  0
    3.1760  -24.1017   17.8825 N   0  0  0  0  0  0  0  0  0  0  0  0
    3.2217  -24.1076   16.8991 H   0  0  0  0  0  0  0  0  0  0  0  0
    2.4207  -24.5602   18.3507 C   0  0  0  0  0  0  0  0  0  0  0  0
    1.5188  -24.1298   18.3851 C   0  0  0  0  0  0  0  0  0  0  0  0
    0.8671  -24.2744   17.6407 O   0  0  0  0  0  0  0  0  0  0  0  0
    1.2687  -23.5547   19.1640 N   0  0  0  0  0  0  0  0  0  0  0  0
    1.9103  -23.4123   19.8969 H   0  0  0  0  0  0  0  0  0  0  0  0
    0.3667  -23.1242   19.1985 C   0  0  0  0  0  0  0  0  0  0  0  0
    0.2173  -22.2403   18.7553 C   0  0  0  0  0  0  0  0  0  0  0  0
   -0.3757  -22.1773   17.9527 O   0  0  0  0  0  0  0  0  0  0  0  0
    0.6610  -21.4194   19.1149 N   0  0  0  0  0  0  0  0  0  0  0  0
    1.2686  -21.3792   19.9082 C   0  0  0  0  0  0  0  0  0  0  0  0
    1.5580  -20.4295   20.0279 C   0  0  0  0  0  0  0  0  0  0  0  0
    1.1293  -19.8828   19.3086 C   0  0  0  0  0  0  0  0  0  0  0  0
    0.5750  -20.4946   18.7444 C   0  0  0  0  0  0  0  0  0  0  0  0
    0.0302  -20.2283   17.9492 C   0  0  0  0  0  0  0  0  0  0  0  0
    0.4558  -20.1781   17.0457 O   0  0  0  0  0  0  0  0  0  0  0  0
   -0.9402  -20.0122   18.0576 O   0  0  0  0  0  0  0  0  0  0  0  0
    1.3650  -20.3806   16.9442 H   0  0  0  0  0  0  0  0  0  0  0  0
   -0.3859  -23.5777   19.6760 C   0  0  0  0  0  0  0  0  0  0  0  0
   -0.2538  -23.9198   20.6063 S   0  0  0  0  0  0  0  0  0  0  0  0
    0.9493  -23.7685   21.2222 H   0  0  0  0  0  0  0  0  0  0  0  0
    2.5674  -25.4493   18.7845 C   0  0  0  0  0  0  0  0  0  0  0  0
    2.4937  -26.2875   18.2442 C   0  0  0  0  0  0  0  0  0  0  0  0
    3.2011  -26.6663   17.6474 C   0  0  0  0  0  0  0  0  0  0  0  0
    2.8443  -27.5070   17.2402 N   0  0  0  0  0  0  0  0  0  0  0  0
    1.9163  -27.6478   17.5853 C   0  0  0  0  0  0  0  0  0  0  0  0
    1.6996  -26.8941   18.2058 N   0  0  0  0  0  0  0  0  0  0  0  0
    0.8532  -26.7710   18.6932 H   0  0  0  0  0  0  0  0  0  0  0  0
    5.5702  -23.2516   18.3056 C   0  0  0  0  0  0  0  0  0  0  0  0
    6.2655  -23.7589   17.7965 C   0  0  0  0  0  0  0  0  0  0  0  0
    7.2250  -23.7073   18.0734 C   0  0  0  0  0  0  0  0  0  0  0  0
    7.6811  -22.8192   18.1332 O   0  0  0  0  0  0  0  0  0  0  0  0
    7.7285  -24.5435   18.2906 N   0  0  0  0  0  0  0  0  0  0  0  0
    7.2794  -25.4177   18.2317 H   0  0  0  0  0  0  0  0  0  0  0  0
    8.6731  -24.4927   18.5631 H   0  0  0  0  0  0  0  0  0  0  0  0
    3.9430  -20.1525   16.4131 C   0  0  0  0  0  0  0  0  0  0  0  0
    4.7096  -19.5392   16.2225 C   0  0  0  0  0  0  0  0  0  0  0  0
    4.6234  -18.5597   16.4042 C   0  0  0  0  0  0  0  0  0  0  0  0
    5.4301  -18.0248   16.6552 C   0  0  0  0  0  0  0  0  0  0  0  0
    5.4960  -17.0637   16.3871 N   0  0  0  0  0  0  0  0  0  0  0  0
    4.7403  -16.6289   15.8576 H   0  0  0  0  0  0  0  0  0  0  0  0
    6.3189  -16.5181   16.6431 H   0  0  0  0  0  0  0  0  0  0  0  0
    2.0754  -23.5574   14.2744 C   0  0  0  0  0  0  0  0  0  0  0  0
    2.7092  -23.9430   14.9451 O   0  0  0  0  0  0  0  0  0  0  0  0
    2.2658  -22.6670   13.8609 N   0  0  0  0  0  0  0  0  0  0  0  0
    1.6419  -22.2874   13.2007 H   0  0  0  0  0  0  0  0  0  0  0  0
    1.2514  -24.0622   14.0173 C   0  0  0  0  0  0  0  0  0  0  0  0
   -0.3396  -23.3787   13.9779 C   0  0  0  0  0  0  0  0  0  0  0  0
   -0.1923  -23.0901   13.0319 O   0  0  0  0  0  0  0  0  0  0  0  0
    0.3822  -23.8647   14.4706 N   0  0  0  0  0  0  0  0  0  0  0  0
    0.2372  -24.1488   15.4021 H   0  0  0  0  0  0  0  0  0  0  0  0
   -1.2088  -23.1812   14.4313 C   0  0  0  0  0  0  0  0  0  0  0  0
   -2.5996  -24.2131   14.4064 C   0  0  0  0  0  0  0  0  0  0  0  0
   -2.2695  -24.6778   15.2280 O   0  0  0  0  0  0  0  0  0  0  0  0
   -2.0692  -23.4648   14.0080 N   0  0  0  0  0  0  0  0  0  0  0  0
   -2.3942  -23.0073   13.1992 H   0  0  0  0  0  0  0  0  0  0  0  0
   -3.4601  -24.4967   13.9831 C   0  0  0  0  0  0  0  0  0  0  0  0
   -3.7032  -24.1630   13.0723 C   0  0  0  0  0  0  0  0  0  0  0  0
   -4.5305  -25.8583   13.9800 C   0  0  0  0  0  0  0  0  0  0  0  0
   -4.3660  -25.9854   13.0019 O   0  0  0  0  0  0  0  0  0  0  0  0
   -4.0775  -25.1140   14.4707 N   0  0  0  0  0  0  0  0  0  0  0  0
   -4.2395  -24.9889   15.4337 H   0  0  0  0  0  0  0  0  0  0  0  0
   -5.1480  -26.4757   14.4676 C   0  0  0  0  0  0  0  0  0  0  0  0
   -4.3829  -27.5399   15.5999 C   0  0  0  0  0  0  0  0  0  0  0  0
   -4.0140  -28.0797   14.8433 O   0  0  0  0  0  0  0  0  0  0  0  0
   -4.9499  -26.7379   15.4120 N   0  0  0  0  0  0  0  0  0  0  0  0
   -5.3131  -26.2064   16.1569 H   0  0  0  0  0  0  0  0  0  0  0  0
   -4.1848  -27.8021   16.5443 C   0  0  0  0  0  0  0  0  0  0  0  0
   -3.0370  -27.0301   17.5867 C   0  0  0  0  0  0  0  0  0  0  0  0
   -3.7518  -26.4141   17.9177 O   0  0  0  0  0  0  0  0  0  0  0  0
   -3.2535  -27.7241   16.9001 N   0  0  0  0  0  0  0  0  0  0  0  0
   -2.5497  -28.3306   16.5742 H   0  0  0  0  0  0  0  0  0  0  0  0
   -1.4421  -26.3628   17.4816 N   0  0  0  0  0  0  0  0  0  0  0  0
   -2.1056  -26.9522   17.9425 C   0  0  0  0  0  0  0  0  0  0  0  0
   -0.4921  -26.2833   17.8443 H   0  0  0  0  0  0  0  0  0  0  0  0
   -1.7153  -25.8411   16.6487 H   0  0  0  0  0  0  0  0  0  0  0  0
   -1.8377  -27.4636   18.7590 C   0  0  0  0  0  0  0  0  0  0  0  0
   -1.5185  -28.4075   18.6754 O   0  0  0  0  0  0  0  0  0  0  0  0
   -1.8892  -27.0310   19.6591 C   0  0  0  0  0  0  0  0  0  0  0  0
   -1.4686  -28.8271   17.8022 H   0  0  0  0  0  0  0  0  0  0  0  0
   -4.9180  -28.1422   17.1331 C   0  0  0  0  0  0  0  0  0  0  0  0
   -5.1656  -29.1109   17.1143 C   0  0  0  0  0  0  0  0  0  0  0  0
   -6.1131  -29.3881   17.2739 C   0  0  0  0  0  0  0  0  0  0  0  0
   -6.8531  -28.7242   17.1663 O   0  0  0  0  0  0  0  0  0  0  0  0
   -6.3205  -30.3291   17.5410 N   0  0  0  0  0  0  0  0  0  0  0  0
   -5.5919  -30.9827   17.6469 H   0  0  0  0  0  0  0  0  0  0  0  0
   -7.2533  -30.6020   17.6981 H   0  0  0  0  0  0  0  0  0  0  0  0
   -5.9635  -26.8308   14.0106 C   0  0  0  0  0  0  0  0  0  0  0  0
   -6.8718  -26.5412   14.3124 C   0  0  0  0  0  0  0  0  0  0  0  0
   -7.6860  -27.0054   13.9639 C   0  0  0  0  0  0  0  0  0  0  0  0
   -7.9811  -26.8564   13.0201 O   0  0  0  0  0  0  0  0  0  0  0  0
   -8.2053  -27.6186   14.5592 N   0  0  0  0  0  0  0  0  0  0  0  0
   -7.9148  -27.7653   15.4884 H   0  0  0  0  0  0  0  0  0  0  0  0
   -9.0070  -28.0757   14.2161 H   0  0  0  0  0  0  0  0  0  0  0  0
   -1.2175  -22.7001   15.3079 C   0  0  0  0  0  0  0  0  0  0  0  0
   -1.3326  -21.7070   15.3321 O   0  0  0  0  0  0  0  0  0  0  0  0
   -1.3410  -21.2404   16.1825 H   0  0  0  0  0  0  0  0  0  0  0  0
    1.2965  -24.7645   13.3068 C   0  0  0  0  0  0  0  0  0  0  0  0
    1.4049  -25.7258   13.5601 C   0  0  0  0  0  0  0  0  0  0  0  0
    0.6991  -26.3119   13.9579 C   0  0  0  0  0  0  0  0  0  0  0  0
    1.0961  -27.2182   14.1038 N   0  0  0  0  0  0  0  0  0  0  0  0
    2.0473  -27.1920   13.7961 C   0  0  0  0  0  0  0  0  0  0  0  0
    2.2380  -26.2696   13.4601 N   0  0  0  0  0  0  0  0  0  0  0  0
    3.0956  -25.9527   13.0949 H   0  0  0  0  0  0  0  0  0  0  0  0
 95 96  1  0  0  0
 95 97  1  0  0  0
 95 98  1  0  0  0
 96 91  1  0  0  0
 96 99  1  0  0  0
 91 92  2  0  0  0
 91 93  1  0  0  0
 93 90  1  0  0  0
 93 94  1  0  0  0
 90103  1  0  0  0
 90 86  1  0  0  0
103104  1  0  0  0
104105  1  0  0  0
105106  2  0  0  0
105107  1  0  0  0
107108  1  0  0  0
107109  1  0  0  0
 86 87  2  0  0  0
 86 88  1  0  0  0
 88 85  1  0  0  0
 88 89  1  0  0  0
 85110  1  0  0  0
 85 81  1  0  0  0
110111  1  0  0  0
111112  1  0  0  0
112113  2  0  0  0
112114  1  0  0  0
114115  1  0  0  0
114116  1  0  0  0
 81 82  2  0  0  0
 81 83  1  0  0  0
 83 79  1  0  0  0
 83 84  1  0  0  0
 79 80  1  0  0  0
 79 75  1  0  0  0
 75 76  2  0  0  0
 75 77  1  0  0  0
 77 74  1  0  0  0
 77 78  1  0  0  0
 74117  1  0  0  0
 74 70  1  0  0  0
117118  1  0  0  0
118119  1  0  0  0
 70 71  2  0  0  0
 70 72  1  0  0  0
 72 69  1  0  0  0
 72 73  1  0  0  0
 69120  1  0  0  0
 69 65  1  0  0  0
120121  1  0  0  0
121125  1  0  0  0
121122  2  0  0  0
122123  1  0  0  0
123124  2  0  0  0
124125  1  0  0  0
125126  1  0  0  0
 65 66  2  0  0  0
 65 67  1  0  0  0
 67  1  1  0  0  0
 67 68  1  0  0  0
  1  2  1  0  0  0
  1 10  1  0  0  0
  2  8  2  0  0  0
  2  3  1  0  0  0
  3  4  2  0  0  0
  4  5  1  0  0  0
  5  6  1  0  0  0
  5  7  2  0  0  0
  6  9  1  0  0  0
  7  8  1  0  0  0
 10 11  2  0  0  0
 10 12  1  0  0  0
 12 14  1  0  0  0
 12 13  1  0  0  0
 14 58  1  0  0  0
 14 15  1  0  0  0
 58 59  1  0  0  0
 59 60  1  0  0  0
 60 61  1  0  0  0
 61 62  1  0  0  0
 62 63  1  0  0  0
 62 64  1  0  0  0
 15 16  2  0  0  0
 15 17  1  0  0  0
 17 19  1  0  0  0
 17 18  1  0  0  0
 19 51  1  0  0  0
 19 20  1  0  0  0
 51 52  1  0  0  0
 52 53  1  0  0  0
 53 54  2  0  0  0
 53 55  1  0  0  0
 55 56  1  0  0  0
 55 57  1  0  0  0
 20 21  2  0  0  0
 20 22  1  0  0  0
 22 24  1  0  0  0
 22 23  1  0  0  0
 24 44  1  0  0  0
 24 25  1  0  0  0
 44 45  1  0  0  0
 45 49  1  0  0  0
 45 46  2  0  0  0
 46 47  1  0  0  0
 47 48  2  0  0  0
 48 49  1  0  0  0
 49 50  1  0  0  0
 25 26  2  0  0  0
 25 27  1  0  0  0
 27 29  1  0  0  0
 27 28  1  0  0  0
 29 41  1  0  0  0
 29 30  1  0  0  0
 41 42  1  0  0  0
 42 43  1  0  0  0
 30 31  2  0  0  0
 30 32  1  0  0  0
 32 36  1  0  0  0
 32 33  1  0  0  0
 33 34  1  0  0  0
 34 35  1  0  0  0
 35 36  1  0  0  0
 36 37  1  0  0  0
 37 38  1  0  0  0
 37 39  2  0  0  0
 38 40  1  0  0  0
 99100  1  0  0  0
 99101  1  0  0  0
100102  1  0  0  0
M  END
> <minimizedAffinity>
-5.73442

$$$$



126129  0  0  0  0  0  0  0  0999 V2000
   -0.1504  -23.6386   17.9447 C   0  0  0  0  0  0  0  0  0  0  0  0
   -0.2651  -24.1689   17.1047 C   0  0  0  0  0  0  0  0  0  0  0  0
    0.5027  -24.6917   16.7346 C   0  0  0  0  0  0  0  0  0  0  0  0
    0.3879  -25.2220   15.8945 C   0  0  0  0  0  0  0  0  0  0  0  0
   -0.4947  -25.2294   15.4246 C   0  0  0  0  0  0  0  0  0  0  0  0
   -0.6095  -25.7596   14.5845 O   0  0  0  0  0  0  0  0  0  0  0  0
   -1.2626  -24.7065   15.7946 C   0  0  0  0  0  0  0  0  0  0  0  0
   -1.1478  -24.1763   16.6347 C   0  0  0  0  0  0  0  0  0  0  0  0
    0.1100  -26.2495   14.2378 H   0  0  0  0  0  0  0  0  0  0  0  0
   -0.1970  -24.0940   18.8337 C   0  0  0  0  0  0  0  0  0  0  0  0
   -0.8232  -23.7562   19.5363 O   0  0  0  0  0  0  0  0  0  0  0  0
    0.3825  -24.8873   19.0201 N   0  0  0  0  0  0  0  0  0  0  0  0
    0.9990  -25.2200   18.3284 H   0  0  0  0  0  0  0  0  0  0  0  0
    0.3359  -25.3428   19.9092 C   0  0  0  0  0  0  0  0  0  0  0  0
    1.0612  -25.2003   20.5827 C   0  0  0  0  0  0  0  0  0  0  0  0
    0.8368  -25.1485   21.5558 O   0  0  0  0  0  0  0  0  0  0  0  0
    2.0109  -25.1095   20.2831 N   0  0  0  0  0  0  0  0  0  0  0  0
    2.2318  -25.1605   19.3251 H   0  0  0  0  0  0  0  0  0  0  0  0
    2.7362  -24.9670   20.9566 C   0  0  0  0  0  0  0  0  0  0  0  0
    3.3132  -25.7331   21.2397 C   0  0  0  0  0  0  0  0  0  0  0  0
    4.0481  -25.5874   21.9020 O   0  0  0  0  0  0  0  0  0  0  0  0
    3.1552  -26.6449   20.8606 N   0  0  0  0  0  0  0  0  0  0  0  0
    2.4316  -26.7883   20.2086 H   0  0  0  0  0  0  0  0  0  0  0  0
    3.7321  -27.4110   21.1438 C   0  0  0  0  0  0  0  0  0  0  0  0
    4.4911  -27.7065   20.5637 C   0  0  0  0  0  0  0  0  0  0  0  0
    4.3316  -27.9125   19.5982 O   0  0  0  0  0  0  0  0  0  0  0  0
    5.4095  -27.7959   20.9489 N   0  0  0  0  0  0  0  0  0  0  0  0
    5.5665  -27.5931   21.8994 H   0  0  0  0  0  0  0  0  0  0  0  0
    6.1685  -28.0914   20.3688 C   0  0  0  0  0  0  0  0  0  0  0  0
    6.8086  -27.4170   20.0009 C   0  0  0  0  0  0  0  0  0  0  0  0
    6.8598  -27.2624   19.0142 O   0  0  0  0  0  0  0  0  0  0  0  0
    7.3976  -26.8970   20.6197 N   0  0  0  0  0  0  0  0  0  0  0  0
    7.4208  -26.9787   21.6160 C   0  0  0  0  0  0  0  0  0  0  0  0
    8.1042  -26.3362   21.9628 C   0  0  0  0  0  0  0  0  0  0  0  0
    8.5033  -25.8576   21.1807 C   0  0  0  0  0  0  0  0  0  0  0  0
    8.0666  -26.2042   20.3506 C   0  0  0  0  0  0  0  0  0  0  0  0
    8.2642  -25.9097   19.4157 C   0  0  0  0  0  0  0  0  0  0  0  0
    8.9771  -26.3700   18.8866 O   0  0  0  0  0  0  0  0  0  0  0  0
    7.7489  -25.1549   19.0097 O   0  0  0  0  0  0  0  0  0  0  0  0
    9.4599  -27.0772   19.2669 H   0  0  0  0  0  0  0  0  0  0  0  0
    6.2874  -29.0614   20.1565 C   0  0  0  0  0  0  0  0  0  0  0  0
    6.6283  -29.6884   20.8570 S   0  0  0  0  0  0  0  0  0  0  0  0
    6.9302  -29.2220   22.0983 H   0  0  0  0  0  0  0  0  0  0  0  0
    3.5500  -27.8816   22.0072 C   0  0  0  0  0  0  0  0  0  0  0  0
    2.7631  -28.4935   22.0868 C   0  0  0  0  0  0  0  0  0  0  0  0
    1.9198  -28.3042   22.5899 C   0  0  0  0  0  0  0  0  0  0  0  0
    1.3169  -29.0958   22.4914 N   0  0  0  0  0  0  0  0  0  0  0  0
    1.7875  -29.7745   21.9274 C   0  0  0  0  0  0  0  0  0  0  0  0
    2.6813  -29.4022   21.6774 N   0  0  0  0  0  0  0  0  0  0  0  0
    3.3613  -29.8514   21.1251 H   0  0  0  0  0  0  0  0  0  0  0  0
    2.8846  -24.0583   21.3469 C   0  0  0  0  0  0  0  0  0  0  0  0
    3.3924  -23.3690   20.8302 C   0  0  0  0  0  0  0  0  0  0  0  0
    3.3170  -22.4029   21.0771 C   0  0  0  0  0  0  0  0  0  0  0  0
    2.4174  -21.9695   21.1311 O   0  0  0  0  0  0  0  0  0  0  0  0
    4.1410  -21.8703   21.2700 N   0  0  0  0  0  0  0  0  0  0  0  0
    5.0266  -22.2971   21.2168 H   0  0  0  0  0  0  0  0  0  0  0  0
    4.0667  -20.9192   21.5131 H   0  0  0  0  0  0  0  0  0  0  0  0
   -0.4361  -25.9409   20.1247 C   0  0  0  0  0  0  0  0  0  0  0  0
   -0.4589  -26.8754   19.7695 C   0  0  0  0  0  0  0  0  0  0  0  0
   -1.1627  -27.5126   20.0837 C   0  0  0  0  0  0  0  0  0  0  0  0
   -1.0788  -28.4887   19.8833 C   0  0  0  0  0  0  0  0  0  0  0  0
   -1.8109  -29.1176   20.1451 N   0  0  0  0  0  0  0  0  0  0  0  0
   -2.6433  -28.7634   20.6164 H   0  0  0  0  0  0  0  0  0  0  0  0
   -1.7254  -30.1132   19.9407 H   0  0  0  0  0  0  0  0  0  0  0  0
    0.9361  -22.2914   18.0123 C   0  0  0  0  0  0  0  0  0  0  0  0
    1.6997  -22.9155   18.1779 O   0  0  0  0  0  0  0  0  0  0  0  0
    0.0111  -22.6529   17.8957 N   0  0  0  0  0  0  0  0  0  0  0  0
   -0.7407  -22.0386   17.7326 H   0  0  0  0  0  0  0  0  0  0  0  0
    1.0975  -21.3057   17.9633 C   0  0  0  0  0  0  0  0  0  0  0  0
    2.4137  -20.7027   17.0125 C   0  0  0  0  0  0  0  0  0  0  0  0
    1.8615  -20.8022   16.1848 O   0  0  0  0  0  0  0  0  0  0  0  0
    2.0317  -20.9545   17.9017 N   0  0  0  0  0  0  0  0  0  0  0  0
    2.5754  -20.8566   18.7166 H   0  0  0  0  0  0  0  0  0  0  0  0
    3.3480  -20.3515   16.9510 C   0  0  0  0  0  0  0  0  0  0  0  0
    4.7897  -20.9599   17.6935 C   0  0  0  0  0  0  0  0  0  0  0  0
    4.6846  -20.3005   18.4378 O   0  0  0  0  0  0  0  0  0  0  0  0
    4.1214  -20.9854   16.9500 N   0  0  0  0  0  0  0  0  0  0  0  0
    4.2248  -21.6346   16.2172 H   0  0  0  0  0  0  0  0  0  0  0  0
    5.5631  -21.5938   17.6925 C   0  0  0  0  0  0  0  0  0  0  0  0
    5.9801  -21.8751   18.5568 C   0  0  0  0  0  0  0  0  0  0  0  0
    5.8546  -22.9226   16.6205 C   0  0  0  0  0  0  0  0  0  0  0  0
    5.4332  -23.5463   17.2790 O   0  0  0  0  0  0  0  0  0  0  0  0
    5.9195  -21.9464   16.8273 N   0  0  0  0  0  0  0  0  0  0  0  0
    6.3344  -21.3325   16.1790 H   0  0  0  0  0  0  0  0  0  0  0  0
    6.2110  -23.2753   15.7553 C   0  0  0  0  0  0  0  0  0  0  0  0
    5.2713  -23.1751   14.3038 C   0  0  0  0  0  0  0  0  0  0  0  0
    5.5718  -22.2301   14.1745 O   0  0  0  0  0  0  0  0  0  0  0  0
    5.5909  -23.6977   15.0941 N   0  0  0  0  0  0  0  0  0  0  0  0
    5.2952  -24.6280   15.2214 H   0  0  0  0  0  0  0  0  0  0  0  0
    4.6512  -23.5974   13.6426 C   0  0  0  0  0  0  0  0  0  0  0  0
    3.0214  -23.0116   13.6647 C   0  0  0  0  0  0  0  0  0  0  0  0
    2.8550  -23.5067   14.5174 O   0  0  0  0  0  0  0  0  0  0  0  0
    3.9196  -23.0570   13.2273 N   0  0  0  0  0  0  0  0  0  0  0  0
    4.0835  -22.5695   12.3878 H   0  0  0  0  0  0  0  0  0  0  0  0
    2.4375  -21.5035   13.0443 N   0  0  0  0  0  0  0  0  0  0  0  0
    2.2897  -22.4710   13.2493 C   0  0  0  0  0  0  0  0  0  0  0  0
    1.6913  -20.9521   12.6207 H   0  0  0  0  0  0  0  0  0  0  0  0
    3.3346  -21.0679   13.2590 H   0  0  0  0  0  0  0  0  0  0  0  0
    1.4104  -22.8981   13.0388 C   0  0  0  0  0  0  0  0  0  0  0  0
    1.3796  -23.7407   12.5012 O   0  0  0  0  0  0  0  0  0  0  0  0
    0.5617  -22.4824   13.3659 C   0  0  0  0  0  0  0  0  0  0  0  0
    2.2029  -24.1439   12.1839 H   0  0  0  0  0  0  0  0  0  0  0  0
    4.7628  -24.5603   13.3968 C   0  0  0  0  0  0  0  0  0  0  0  0
    5.0872  -24.8090   12.4842 C   0  0  0  0  0  0  0  0  0  0  0  0
    4.9541  -25.7394   12.1425 C   0  0  0  0  0  0  0  0  0  0  0  0
    4.0531  -26.0298   11.8205 O   0  0  0  0  0  0  0  0  0  0  0  0
    5.7223  -26.3794   12.1229 N   0  0  0  0  0  0  0  0  0  0  0  0
    6.6094  -26.0935   12.4399 H   0  0  0  0  0  0  0  0  0  0  0  0
    5.5913  -27.2953   11.7866 H   0  0  0  0  0  0  0  0  0  0  0  0
    7.1875  -23.2056   15.5512 C   0  0  0  0  0  0  0  0  0  0  0  0
    7.7908  -23.9846   15.7219 C   0  0  0  0  0  0  0  0  0  0  0  0
    8.7830  -23.8658   15.6859 C   0  0  0  0  0  0  0  0  0  0  0  0
    9.1943  -23.3111   14.9625 O   0  0  0  0  0  0  0  0  0  0  0  0
    9.3641  -24.3018   16.3732 N   0  0  0  0  0  0  0  0  0  0  0  0
    8.9593  -24.8479   17.0853 H   0  0  0  0  0  0  0  0  0  0  0  0
   10.3410  -24.1848   16.3377 H   0  0  0  0  0  0  0  0  0  0  0  0
    3.5088  -19.3664   16.8904 C   0  0  0  0  0  0  0  0  0  0  0  0
    3.8248  -18.9633   16.0316 O   0  0  0  0  0  0  0  0  0  0  0  0
    3.9808  -18.0077   15.9728 H   0  0  0  0  0  0  0  0  0  0  0  0
    0.3246  -20.6712   17.9758 C   0  0  0  0  0  0  0  0  0  0  0  0
   -0.0155  -20.3145   18.8459 C   0  0  0  0  0  0  0  0  0  0  0  0
   -0.9478  -20.0028   19.0293 C   0  0  0  0  0  0  0  0  0  0  0  0
   -0.9914  -19.7025   19.9822 N   0  0  0  0  0  0  0  0  0  0  0  0
   -0.0860  -19.8286   20.3877 C   0  0  0  0  0  0  0  0  0  0  0  0
    0.5171  -20.2069   19.6854 N   0  0  0  0  0  0  0  0  0  0  0  0
    1.4682  -20.4335   19.8003 H   0  0  0  0  0  0  0  0  0  0  0  0
 95 96  1  0  0  0
 95 97  1  0  0  0
 95 98  1  0  0  0
 96 91  1  0  0  0
 96 99  1  0  0  0
 91 92  2  0  0  0
 91 93  1  0  0  0
 93 90  1  0  0  0
 93 94  1  0  0  0
 90103  1  0  0  0
 90 86  1  0  0  0
103104  1  0  0  0
104105  1  0  0  0
105106  2  0  0  0
105107  1  0  0  0
107108  1  0  0  0
107109  1  0  0  0
 86 87  2  0  0  0
 86 88  1  0  0  0
 88 85  1  0  0  0
 88 89  1  0  0  0
 85110  1  0  0  0
 85 81  1  0  0  0
110111  1  0  0  0
111112  1  0  0  0
112113  2  0  0  0
112114  1  0  0  0
114115  1  0  0  0
114116  1  0  0  0
 81 82  2  0  0  0
 81 83  1  0  0  0
 83 79  1  0  0  0
 83 84  1  0  0  0
 79 80  1  0  0  0
 79 75  1  0  0  0
 75 76  2  0  0  0
 75 77  1  0  0  0
 77 74  1  0  0  0
 77 78  1  0  0  0
 74117  1  0  0  0
 74 70  1  0  0  0
117118  1  0  0  0
118119  1  0  0  0
 70 71  2  0  0  0
 70 72  1  0  0  0
 72 69  1  0  0  0
 72 73  1  0  0  0
 69120  1  0  0  0
 69 65  1  0  0  0
120121  1  0  0  0
121125  1  0  0  0
121122  2  0  0  0
122123  1  0  0  0
123124  2  0  0  0
124125  1  0  0  0
125126  1  0  0  0
 65 66  2  0  0  0
 65 67  1  0  0  0
 67  1  1  0  0  0
 67 68  1  0  0  0
  1  2  1  0  0  0
  1 10  1  0  0  0
  2  8  2  0  0  0
  2  3  1  0  0  0
  3  4  2  0  0  0
  4  5  1  0  0  0
  5  6  1  0  0  0
  5  7  2  0  0  0
  6  9  1  0  0  0
  7  8  1  0  0  0
 10 11  2  0  0  0
 10 12  1  0  0  0
 12 14  1  0  0  0
 12 13  1  0  0  0
 14 58  1  0  0  0
 14 15  1  0  0  0
 58 59  1  0  0  0
 59 60  1  0  0  0
 60 61  1  0  0  0
 61 62  1  0  0  0
 62 63  1  0  0  0
 62 64  1  0  0  0
 15 16  2  0  0  0
 15 17  1  0  0  0
 17 19  1  0  0  0
 17 18  1  0  0  0
 19 51  1  0  0  0
 19 20  1  0  0  0
 51 52  1  0  0  0
 52 53  1  0  0  0
 53 54  2  0  0  0
 53 55  1  0  0  0
 55 56  1  0  0  0
 55 57  1  0  0  0
 20 21  2  0  0  0
 20 22  1  0  0  0
 22 24  1  0  0  0
 22 23  1  0  0  0
 24 44  1  0  0  0
 24 25  1  0  0  0
 44 45  1  0  0  0
 45 49  1  0  0  0
 45 46  2  0  0  0
 46 47  1  0  0  0
 47 48  2  0  0  0
 48 49  1  0  0  0
 49 50  1  0  0  0
 25 26  2  0  0  0
 25 27  1  0  0  0
 27 29  1  0  0  0
 27 28  1  0  0  0
 29 41  1  0  0  0
 29 30  1  0  0  0
 41 42  1  0  0  0
 42 43  1  0  0  0
 30 31  2  0  0  0
 30 32  1  0  0  0
 32 36  1  0  0  0
 32 33  1  0  0  0
 33 34  1  0  0  0
 34 35  1  0  0  0
 35 36  1  0  0  0
 36 37  1  0  0  0
 37 38  1  0  0  0
 37 39  2  0  0  0
 38 40  1  0  0  0
 99100  1  0  0  0
 99101  1  0  0  0
100102  1  0  0  0
M  END
> <minimizedAffinity>
-5.71765

$$$$



126129  0  0  0  0  0  0  0  0999 V2000
    4.4749  -21.9564   14.6508 C   0  0  0  0  0  0  0  0  0  0  0  0
    4.3709  -21.9396   13.6564 C   0  0  0  0  0  0  0  0  0  0  0  0
    3.4977  -22.1941   13.2407 C   0  0  0  0  0  0  0  0  0  0  0  0
    3.3937  -22.1772   12.2462 C   0  0  0  0  0  0  0  0  0  0  0  0
    4.1629  -21.9060   11.6675 C   0  0  0  0  0  0  0  0  0  0  0  0
    4.0589  -21.8892   10.6731 O   0  0  0  0  0  0  0  0  0  0  0  0
    5.0360  -21.6516   12.0833 C   0  0  0  0  0  0  0  0  0  0  0  0
    5.1401  -21.6684   13.0777 C   0  0  0  0  0  0  0  0  0  0  0  0
    3.2407  -22.1276   10.2835 H   0  0  0  0  0  0  0  0  0  0  0  0
    3.9481  -21.3246   15.2194 C   0  0  0  0  0  0  0  0  0  0  0  0
    3.0592  -20.9915   14.9050 O   0  0  0  0  0  0  0  0  0  0  0  0
    4.3103  -21.0259   16.1023 N   0  0  0  0  0  0  0  0  0  0  0  0
    5.1855  -21.3538   16.4118 H   0  0  0  0  0  0  0  0  0  0  0  0
    3.7835  -20.3940   16.6709 C   0  0  0  0  0  0  0  0  0  0  0  0
    3.1030  -20.7475   17.3127 C   0  0  0  0  0  0  0  0  0  0  0  0
    2.2859  -20.2101   17.5212 O   0  0  0  0  0  0  0  0  0  0  0  0
    3.2395  -21.6383   17.7459 N   0  0  0  0  0  0  0  0  0  0  0  0
    4.0440  -22.1674   17.5405 H   0  0  0  0  0  0  0  0  0  0  0  0
    2.5589  -21.9918   18.3876 C   0  0  0  0  0  0  0  0  0  0  0  0
    1.8776  -22.6554   18.0786 C   0  0  0  0  0  0  0  0  0  0  0  0
    2.1697  -23.5432   17.7230 O   0  0  0  0  0  0  0  0  0  0  0  0
    0.9041  -22.4312   18.1253 N   0  0  0  0  0  0  0  0  0  0  0  0
    0.6166  -21.5571   18.4754 H   0  0  0  0  0  0  0  0  0  0  0  0
    0.2228  -23.0947   17.8163 C   0  0  0  0  0  0  0  0  0  0  0  0
   -0.3575  -23.5627   18.4828 C   0  0  0  0  0  0  0  0  0  0  0  0
   -0.9834  -23.0359   19.0578 O   0  0  0  0  0  0  0  0  0  0  0  0
   -0.3118  -24.5574   18.5742 N   0  0  0  0  0  0  0  0  0  0  0  0
    0.3044  -25.0760   18.0081 H   0  0  0  0  0  0  0  0  0  0  0  0
   -0.8921  -25.0254   19.2407 C   0  0  0  0  0  0  0  0  0  0  0  0
   -1.6495  -25.5991   18.9287 C   0  0  0  0  0  0  0  0  0  0  0  0
   -2.5745  -25.4359   19.2716 O   0  0  0  0  0  0  0  0  0  0  0  0
   -1.4817  -26.3360   18.2738 N   0  0  0  0  0  0  0  0  0  0  0  0
   -0.5972  -26.5773   17.8744 C   0  0  0  0  0  0  0  0  0  0  0  0
   -0.7379  -27.3513   17.2571 C   0  0  0  0  0  0  0  0  0  0  0  0
   -1.7092  -27.5883   17.2749 C   0  0  0  0  0  0  0  0  0  0  0  0
   -2.1689  -26.9608   17.9033 C   0  0  0  0  0  0  0  0  0  0  0  0
   -3.1445  -26.9585   18.1226 C   0  0  0  0  0  0  0  0  0  0  0  0
   -3.4941  -27.5449   18.8534 O   0  0  0  0  0  0  0  0  0  0  0  0
   -3.7706  -26.3699   17.6112 O   0  0  0  0  0  0  0  0  0  0  0  0
   -2.9074  -28.0964   19.3326 H   0  0  0  0  0  0  0  0  0  0  0  0
   -0.7151  -24.9197   20.2193 C   0  0  0  0  0  0  0  0  0  0  0  0
   -0.2891  -25.6640   20.7336 S   0  0  0  0  0  0  0  0  0  0  0  0
    0.0495  -26.8201   20.1023 H   0  0  0  0  0  0  0  0  0  0  0  0
    0.1218  -23.2903   16.8408 C   0  0  0  0  0  0  0  0  0  0  0  0
   -0.4045  -22.6707   16.2585 C   0  0  0  0  0  0  0  0  0  0  0  0
   -1.0904  -22.9401   15.5824 C   0  0  0  0  0  0  0  0  0  0  0  0
   -1.4472  -22.1089   15.1561 N   0  0  0  0  0  0  0  0  0  0  0  0
   -0.9819  -21.3257   15.5688 C   0  0  0  0  0  0  0  0  0  0  0  0
   -0.3375  -21.6730   16.2501 N   0  0  0  0  0  0  0  0  0  0  0  0
    0.2582  -21.1282   16.8136 H   0  0  0  0  0  0  0  0  0  0  0  0
    2.5597  -21.6818   19.3383 C   0  0  0  0  0  0  0  0  0  0  0  0
    3.0993  -22.1712   20.0234 C   0  0  0  0  0  0  0  0  0  0  0  0
    3.3920  -21.7029   20.8571 C   0  0  0  0  0  0  0  0  0  0  0  0
    4.2865  -21.2570   20.8923 O   0  0  0  0  0  0  0  0  0  0  0  0
    2.7905  -21.6806   21.6556 N   0  0  0  0  0  0  0  0  0  0  0  0
    1.9099  -22.1196   21.6209 H   0  0  0  0  0  0  0  0  0  0  0  0
    3.0787  -21.2196   22.4764 H   0  0  0  0  0  0  0  0  0  0  0  0
    3.9374  -19.4086   16.5978 C   0  0  0  0  0  0  0  0  0  0  0  0
    4.8303  -19.0233   16.8308 C   0  0  0  0  0  0  0  0  0  0  0  0
    4.9635  -18.0322   16.8276 C   0  0  0  0  0  0  0  0  0  0  0  0
    5.8862  -17.6514   16.8873 C   0  0  0  0  0  0  0  0  0  0  0  0
    6.0852  -16.7576   16.4856 N   0  0  0  0  0  0  0  0  0  0  0  0
    5.3470  -16.2342   16.0149 H   0  0  0  0  0  0  0  0  0  0  0  0
    7.0264  -16.3692   16.5465 H   0  0  0  0  0  0  0  0  0  0  0  0
    4.7763  -23.5014   15.3734 C   0  0  0  0  0  0  0  0  0  0  0  0
    3.8161  -23.7492   15.2443 O   0  0  0  0  0  0  0  0  0  0  0  0
    5.1057  -22.6051   15.0767 N   0  0  0  0  0  0  0  0  0  0  0  0
    6.0510  -22.3612   15.2038 H   0  0  0  0  0  0  0  0  0  0  0  0
    5.4071  -24.1501   15.7993 C   0  0  0  0  0  0  0  0  0  0  0  0
    5.7469  -24.0012   17.4911 C   0  0  0  0  0  0  0  0  0  0  0  0
    4.8811  -24.4535   17.7049 O   0  0  0  0  0  0  0  0  0  0  0  0
    6.0099  -23.8495   16.5383 N   0  0  0  0  0  0  0  0  0  0  0  0
    6.8624  -23.4041   16.3279 H   0  0  0  0  0  0  0  0  0  0  0  0
    6.3498  -23.7006   18.2302 C   0  0  0  0  0  0  0  0  0  0  0  0
    7.4249  -24.8301   18.9838 C   0  0  0  0  0  0  0  0  0  0  0  0
    8.0714  -24.7183   18.2291 O   0  0  0  0  0  0  0  0  0  0  0  0
    6.5641  -24.3213   18.9843 N   0  0  0  0  0  0  0  0  0  0  0  0
    5.9277  -24.4313   19.7273 H   0  0  0  0  0  0  0  0  0  0  0  0
    7.6393  -25.4508   19.7380 C   0  0  0  0  0  0  0  0  0  0  0  0
    8.5139  -25.9354   19.7535 C   0  0  0  0  0  0  0  0  0  0  0  0
    6.6415  -26.5055   20.6824 C   0  0  0  0  0  0  0  0  0  0  0  0
    6.9642  -27.2878   20.1497 O   0  0  0  0  0  0  0  0  0  0  0  0
    6.9791  -25.5870   20.4766 N   0  0  0  0  0  0  0  0  0  0  0  0
    6.6615  -24.8167   21.0011 H   0  0  0  0  0  0  0  0  0  0  0  0
    5.9813  -26.6417   21.4211 C   0  0  0  0  0  0  0  0  0  0  0  0
    6.4884  -27.0205   23.0334 C   0  0  0  0  0  0  0  0  0  0  0  0
    6.6325  -26.0481   23.2165 O   0  0  0  0  0  0  0  0  0  0  0  0
    6.1628  -27.3173   22.1357 N   0  0  0  0  0  0  0  0  0  0  0  0
    6.0209  -28.2747   21.9553 H   0  0  0  0  0  0  0  0  0  0  0  0
    6.6698  -27.6961   23.7479 C   0  0  0  0  0  0  0  0  0  0  0  0
    8.3121  -28.1523   24.0559 C   0  0  0  0  0  0  0  0  0  0  0  0
    8.2971  -28.7483   23.2530 O   0  0  0  0  0  0  0  0  0  0  0  0
    7.4985  -27.6262   24.3033 N   0  0  0  0  0  0  0  0  0  0  0  0
    7.5132  -27.0394   25.0937 H   0  0  0  0  0  0  0  0  0  0  0  0
    9.3674  -28.8049   25.2644 N   0  0  0  0  0  0  0  0  0  0  0  0
    9.1408  -28.0824   24.6113 C   0  0  0  0  0  0  0  0  0  0  0  0
   10.2125  -28.7336   25.8310 H   0  0  0  0  0  0  0  0  0  0  0  0
    8.7533  -29.6133   25.3640 H   0  0  0  0  0  0  0  0  0  0  0  0
    9.7428  -27.2899   24.5137 C   0  0  0  0  0  0  0  0  0  0  0  0
   10.1594  -27.0846   23.6281 O   0  0  0  0  0  0  0  0  0  0  0  0
    9.9281  -26.7027   25.3016 C   0  0  0  0  0  0  0  0  0  0  0  0
    9.9796  -27.6542   22.8638 H   0  0  0  0  0  0  0  0  0  0  0  0
    6.0227  -28.4417   23.9070 C   0  0  0  0  0  0  0  0  0  0  0  0
    5.4444  -28.4362   24.7228 C   0  0  0  0  0  0  0  0  0  0  0  0
    4.9368  -29.2581   24.9815 C   0  0  0  0  0  0  0  0  0  0  0  0
    5.4232  -30.0525   25.3450 O   0  0  0  0  0  0  0  0  0  0  0  0
    3.9427  -29.2854   24.8766 N   0  0  0  0  0  0  0  0  0  0  0  0
    3.4638  -28.5032   24.5188 H   0  0  0  0  0  0  0  0  0  0  0  0
    3.4429  -30.0945   25.1313 H   0  0  0  0  0  0  0  0  0  0  0  0
    5.1396  -26.1022   21.4452 C   0  0  0  0  0  0  0  0  0  0  0  0
    4.3039  -26.4608   21.0292 C   0  0  0  0  0  0  0  0  0  0  0  0
    3.5182  -25.8588   20.8869 C   0  0  0  0  0  0  0  0  0  0  0  0
    3.0661  -25.8291   19.9955 O   0  0  0  0  0  0  0  0  0  0  0  0
    3.1847  -25.2864   21.6360 N   0  0  0  0  0  0  0  0  0  0  0  0
    3.6298  -25.3156   22.5137 H   0  0  0  0  0  0  0  0  0  0  0  0
    2.4111  -24.6937   21.4959 H   0  0  0  0  0  0  0  0  0  0  0  0
    6.7382  -22.7792   18.2151 C   0  0  0  0  0  0  0  0  0  0  0  0
    6.2511  -22.0240   18.6535 O   0  0  0  0  0  0  0  0  0  0  0  0
    6.6280  -21.1302   18.6389 H   0  0  0  0  0  0  0  0  0  0  0  0
    5.4350  -25.0994   15.4861 C   0  0  0  0  0  0  0  0  0  0  0  0
    6.1198  -25.3848   14.8155 C   0  0  0  0  0  0  0  0  0  0  0  0
    7.0429  -25.7102   15.0202 C   0  0  0  0  0  0  0  0  0  0  0  0
    7.4954  -25.9214   14.1537 N   0  0  0  0  0  0  0  0  0  0  0  0
    6.8517  -25.7264   13.4135 C   0  0  0  0  0  0  0  0  0  0  0  0
    6.0016  -25.3948   13.8226 N   0  0  0  0  0  0  0  0  0  0  0  0
    5.1907  -25.1254   13.3336 H   0  0  0  0  0  0  0  0  0  0  0  0
 95 96  1  0  0  0
 95 97  1  0  0  0
 95 98  1  0  0  0
 96 91  1  0  0  0
 96 99  1  0  0  0
 91 92  2  0  0  0
 91 93  1  0  0  0
 93 90  1  0  0  0
 93 94  1  0  0  0
 90103  1  0  0  0
 90 86  1  0  0  0
103104  1  0  0  0
104105  1  0  0  0
105106  2  0  0  0
105107  1  0  0  0
107108  1  0  0  0
107109  1  0  0  0
 86 87  2  0  0  0
 86 88  1  0  0  0
 88 85  1  0  0  0
 88 89  1  0  0  0
 85110  1  0  0  0
 85 81  1  0  0  0
110111  1  0  0  0
111112  1  0  0  0
112113  2  0  0  0
112114  1  0  0  0
114115  1  0  0  0
114116  1  0  0  0
 81 82  2  0  0  0
 81 83  1  0  0  0
 83 79  1  0  0  0
 83 84  1  0  0  0
 79 80  1  0  0  0
 79 75  1  0  0  0
 75 76  2  0  0  0
 75 77  1  0  0  0
 77 74  1  0  0  0
 77 78  1  0  0  0
 74117  1  0  0  0
 74 70  1  0  0  0
117118  1  0  0  0
118119  1  0  0  0
 70 71  2  0  0  0
 70 72  1  0  0  0
 72 69  1  0  0  0
 72 73  1  0  0  0
 69120  1  0  0  0
 69 65  1  0  0  0
120121  1  0  0  0
121125  1  0  0  0
121122  2  0  0  0
122123  1  0  0  0
123124  2  0  0  0
124125  1  0  0  0
125126  1  0  0  0
 65 66  2  0  0  0
 65 67  1  0  0  0
 67  1  1  0  0  0
 67 68  1  0  0  0
  1  2  1  0  0  0
  1 10  1  0  0  0
  2  8  2  0  0  0
  2  3  1  0  0  0
  3  4  2  0  0  0
  4  5  1  0  0  0
  5  6  1  0  0  0
  5  7  2  0  0  0
  6  9  1  0  0  0
  7  8  1  0  0  0
 10 11  2  0  0  0
 10 12  1  0  0  0
 12 14  1  0  0  0
 12 13  1  0  0  0
 14 58  1  0  0  0
 14 15  1  0  0  0
 58 59  1  0  0  0
 59 60  1  0  0  0
 60 61  1  0  0  0
 61 62  1  0  0  0
 62 63  1  0  0  0
 62 64  1  0  0  0
 15 16  2  0  0  0
 15 17  1  0  0  0
 17 19  1  0  0  0
 17 18  1  0  0  0
 19 51  1  0  0  0
 19 20  1  0  0  0
 51 52  1  0  0  0
 52 53  1  0  0  0
 53 54  2  0  0  0
 53 55  1  0  0  0
 55 56  1  0  0  0
 55 57  1  0  0  0
 20 21  2  0  0  0
 20 22  1  0  0  0
 22 24  1  0  0  0
 22 23  1  0  0  0
 24 44  1  0  0  0
 24 25  1  0  0  0
 44 45  1  0  0  0
 45 49  1  0  0  0
 45 46  2  0  0  0
 46 47  1  0  0  0
 47 48  2  0  0  0
 48 49  1  0  0  0
 49 50  1  0  0  0
 25 26  2  0  0  0
 25 27  1  0  0  0
 27 29  1  0  0  0
 27 28  1  0  0  0
 29 41  1  0  0  0
 29 30  1  0  0  0
 41 42  1  0  0  0
 42 43  1  0  0  0
 30 31  2  0  0  0
 30 32  1  0  0  0
 32 36  1  0  0  0
 32 33  1  0  0  0
 33 34  1  0  0  0
 34 35  1  0  0  0
 35 36  1  0  0  0
 36 37  1  0  0  0
 37 38  1  0  0  0
 37 39  2  0  0  0
 38 40  1  0  0  0
 99100  1  0  0  0
 99101  1  0  0  0
100102  1  0  0  0
M  END
> <minimizedAffinity>
-5.66435

$$$$
