


126129  0  0  0  0  0  0  0  0999 V2000
   25.5531  -27.0725   -4.9776 C   0  0  0  0  0  0  0  0  0  0  0  0
   25.2271  -27.8123   -4.3890 C   0  0  0  0  0  0  0  0  0  0  0  0
   25.2238  -27.6964   -3.3958 C   0  0  0  0  0  0  0  0  0  0  0  0
   24.8978  -28.4363   -2.8071 C   0  0  0  0  0  0  0  0  0  0  0  0
   24.5750  -29.2918   -3.2118 C   0  0  0  0  0  0  0  0  0  0  0  0
   24.2490  -30.0316   -2.6232 O   0  0  0  0  0  0  0  0  0  0  0  0
   24.5782  -29.4077   -4.2051 C   0  0  0  0  0  0  0  0  0  0  0  0
   24.9042  -28.6679   -4.7937 C   0  0  0  0  0  0  0  0  0  0  0  0
   24.2459  -29.9230   -1.6925 H   0  0  0  0  0  0  0  0  0  0  0  0
   26.3435  -27.2184   -5.5725 C   0  0  0  0  0  0  0  0  0  0  0  0
   26.2113  -27.3632   -6.5531 O   0  0  0  0  0  0  0  0  0  0  0  0
   27.2661  -27.2194   -5.1868 N   0  0  0  0  0  0  0  0  0  0  0  0
   27.3962  -27.0768   -4.2214 H   0  0  0  0  0  0  0  0  0  0  0  0
   28.0566  -27.3653   -5.7817 C   0  0  0  0  0  0  0  0  0  0  0  0
   28.3489  -28.2949   -6.0059 C   0  0  0  0  0  0  0  0  0  0  0  0
   28.4287  -28.9818   -5.2836 O   0  0  0  0  0  0  0  0  0  0  0  0
   28.5614  -28.5377   -6.9525 N   0  0  0  0  0  0  0  0  0  0  0  0
   28.4828  -27.8614   -7.6636 H   0  0  0  0  0  0  0  0  0  0  0  0
   28.8536  -29.4674   -7.1767 C   0  0  0  0  0  0  0  0  0  0  0  0
   29.8187  -29.6587   -7.3553 C   0  0  0  0  0  0  0  0  0  0  0  0
   30.2066  -30.5465   -7.1078 O   0  0  0  0  0  0  0  0  0  0  0  0
   30.3961  -28.9621   -7.7815 N   0  0  0  0  0  0  0  0  0  0  0  0
   30.0142  -28.0880   -8.0251 H   0  0  0  0  0  0  0  0  0  0  0  0
   31.3612  -29.1534   -7.9600 C   0  0  0  0  0  0  0  0  0  0  0  0
   31.6807  -29.2778   -8.8994 C   0  0  0  0  0  0  0  0  0  0  0  0
   31.8002  -28.4843   -9.4961 O   0  0  0  0  0  0  0  0  0  0  0  0
   31.8808  -30.1957   -9.2421 N   0  0  0  0  0  0  0  0  0  0  0  0
   31.7632  -30.9768   -8.6546 H   0  0  0  0  0  0  0  0  0  0  0  0
   32.2003  -30.3201  -10.1814 C   0  0  0  0  0  0  0  0  0  0  0  0
   31.5451  -30.5189  -10.9102 C   0  0  0  0  0  0  0  0  0  0  0  0
   31.4616  -29.8989  -11.6903 O   0  0  0  0  0  0  0  0  0  0  0  0
   30.9735  -31.3379  -10.8589 N   0  0  0  0  0  0  0  0  0  0  0  0
   30.9826  -32.0159  -10.1239 C   0  0  0  0  0  0  0  0  0  0  0  0
   30.3071  -32.7196  -10.3444 C   0  0  0  0  0  0  0  0  0  0  0  0
   29.8806  -32.4764  -11.2156 C   0  0  0  0  0  0  0  0  0  0  0  0
   30.2924  -31.6225  -11.5336 C   0  0  0  0  0  0  0  0  0  0  0  0
   30.0634  -31.1382  -12.3779 C   0  0  0  0  0  0  0  0  0  0  0  0
   29.3471  -30.4404  -12.3756 O   0  0  0  0  0  0  0  0  0  0  0  0
   30.5508  -31.3516  -13.2247 O   0  0  0  0  0  0  0  0  0  0  0  0
   28.8905  -30.2404  -11.5822 H   0  0  0  0  0  0  0  0  0  0  0  0
   33.1751  -30.2457  -10.3920 C   0  0  0  0  0  0  0  0  0  0  0  0
   33.8112  -30.9467  -10.0697 S   0  0  0  0  0  0  0  0  0  0  0  0
   33.3508  -32.0014   -9.3450 H   0  0  0  0  0  0  0  0  0  0  0  0
   32.0068  -29.2202   -7.1993 C   0  0  0  0  0  0  0  0  0  0  0  0
   32.4836  -28.4033   -6.8749 C   0  0  0  0  0  0  0  0  0  0  0  0
   32.1195  -27.7246   -6.2370 C   0  0  0  0  0  0  0  0  0  0  0  0
   32.8191  -27.0235   -6.0992 N   0  0  0  0  0  0  0  0  0  0  0  0
   33.6156  -27.2688   -6.6519 C   0  0  0  0  0  0  0  0  0  0  0  0
   33.4082  -28.1217   -7.1313 N   0  0  0  0  0  0  0  0  0  0  0  0
   34.0089  -28.5999   -7.7475 H   0  0  0  0  0  0  0  0  0  0  0  0
   28.1808  -30.2057   -7.2223 C   0  0  0  0  0  0  0  0  0  0  0  0
   27.5998  -30.3035   -8.0303 C   0  0  0  0  0  0  0  0  0  0  0  0
   26.7745  -30.8667   -7.9875 C   0  0  0  0  0  0  0  0  0  0  0  0
   26.8291  -31.8484   -8.1707 O   0  0  0  0  0  0  0  0  0  0  0  0
   25.8948  -30.4484   -7.7617 N   0  0  0  0  0  0  0  0  0  0  0  0
   25.8412  -29.4820   -7.5814 H   0  0  0  0  0  0  0  0  0  0  0  0
   25.0824  -31.0029   -7.7196 H   0  0  0  0  0  0  0  0  0  0  0  0
   28.5548  -26.5814   -6.1524 C   0  0  0  0  0  0  0  0  0  0  0  0
   28.9612  -25.9092   -5.5335 C   0  0  0  0  0  0  0  0  0  0  0  0
   29.5515  -25.1881   -5.8963 C   0  0  0  0  0  0  0  0  0  0  0  0
   29.6470  -24.3241   -5.4020 C   0  0  0  0  0  0  0  0  0  0  0  0
   29.8813  -23.4878   -5.8977 N   0  0  0  0  0  0  0  0  0  0  0  0
   30.0229  -23.5161   -6.9075 H   0  0  0  0  0  0  0  0  0  0  0  0
   29.9787  -22.6065   -5.3935 H   0  0  0  0  0  0  0  0  0  0  0  0
   24.3447  -26.0079   -5.6151 C   0  0  0  0  0  0  0  0  0  0  0  0
   24.0651  -26.7145   -6.2652 O   0  0  0  0  0  0  0  0  0  0  0  0
   25.0887  -26.1869   -4.9713 N   0  0  0  0  0  0  0  0  0  0  0  0
   25.3639  -25.4914   -4.3313 H   0  0  0  0  0  0  0  0  0  0  0  0
   23.8803  -25.1223   -5.6088 C   0  0  0  0  0  0  0  0  0  0  0  0
   24.3853  -23.8371   -6.6543 C   0  0  0  0  0  0  0  0  0  0  0  0
   25.0977  -23.5844   -5.9997 O   0  0  0  0  0  0  0  0  0  0  0  0
   23.7766  -24.6060   -6.4589 N   0  0  0  0  0  0  0  0  0  0  0  0
   23.0753  -24.8549   -7.1035 H   0  0  0  0  0  0  0  0  0  0  0  0
   24.2816  -23.3208   -7.5045 C   0  0  0  0  0  0  0  0  0  0  0  0
   25.3310  -23.4455   -8.8768 C   0  0  0  0  0  0  0  0  0  0  0  0
   24.7613  -24.1800   -9.2456 O   0  0  0  0  0  0  0  0  0  0  0  0
   25.0911  -23.0160   -8.0062 N   0  0  0  0  0  0  0  0  0  0  0  0
   25.6520  -22.2929   -7.6430 H   0  0  0  0  0  0  0  0  0  0  0  0
   26.1405  -23.1406   -9.3785 C   0  0  0  0  0  0  0  0  0  0  0  0
   26.2329  -22.1806   -9.6426 C   0  0  0  0  0  0  0  0  0  0  0  0
   27.7091  -23.8169   -9.0924 C   0  0  0  0  0  0  0  0  0  0  0  0
   27.8436  -23.1828   -8.3310 O   0  0  0  0  0  0  0  0  0  0  0  0
   26.8576  -23.7958   -9.6162 N   0  0  0  0  0  0  0  0  0  0  0  0
   26.7252  -24.4201  -10.3659 H   0  0  0  0  0  0  0  0  0  0  0  0
   28.4263  -24.4721   -9.3301 C   0  0  0  0  0  0  0  0  0  0  0  0
   30.0403  -24.0043   -9.7498 C   0  0  0  0  0  0  0  0  0  0  0  0
   29.7596  -23.8907  -10.7028 O   0  0  0  0  0  0  0  0  0  0  0  0
   29.3737  -24.2950   -9.0634 N   0  0  0  0  0  0  0  0  0  0  0  0
   29.6500  -24.4068   -8.1252 H   0  0  0  0  0  0  0  0  0  0  0  0
   30.9877  -23.8272   -9.4831 C   0  0  0  0  0  0  0  0  0  0  0  0
   31.3415  -22.1918   -9.0355 C   0  0  0  0  0  0  0  0  0  0  0  0
   31.2907  -21.9179   -9.9959 O   0  0  0  0  0  0  0  0  0  0  0  0
   31.1900  -23.1464   -8.7791 N   0  0  0  0  0  0  0  0  0  0  0  0
   31.2400  -23.4161   -7.8336 H   0  0  0  0  0  0  0  0  0  0  0  0
   32.4538  -21.4744   -7.9182 N   0  0  0  0  0  0  0  0  0  0  0  0
   31.5439  -21.5110   -8.3315 C   0  0  0  0  0  0  0  0  0  0  0  0
   32.6602  -20.7801   -7.2001 H   0  0  0  0  0  0  0  0  0  0  0  0
   33.1754  -22.1315   -8.2148 H   0  0  0  0  0  0  0  0  0  0  0  0
   30.8364  -20.8669   -8.0407 C   0  0  0  0  0  0  0  0  0  0  0  0
   29.9313  -21.2026   -7.7796 O   0  0  0  0  0  0  0  0  0  0  0  0
   31.0340  -19.8871   -8.0110 C   0  0  0  0  0  0  0  0  0  0  0  0
   29.7397  -22.1531   -7.8084 H   0  0  0  0  0  0  0  0  0  0  0  0
   31.7327  -24.3308   -9.9204 C   0  0  0  0  0  0  0  0  0  0  0  0
   32.1896  -25.0731   -9.4303 C   0  0  0  0  0  0  0  0  0  0  0  0
   33.1507  -25.2778   -9.6161 C   0  0  0  0  0  0  0  0  0  0  0  0
   33.8706  -24.7609   -9.1530 O   0  0  0  0  0  0  0  0  0  0  0  0
   33.3918  -25.9995  -10.2650 N   0  0  0  0  0  0  0  0  0  0  0  0
   32.6830  -26.5084  -10.7208 H   0  0  0  0  0  0  0  0  0  0  0  0
   34.3379  -26.2010  -10.4479 H   0  0  0  0  0  0  0  0  0  0  0  0
   28.1961  -25.3043   -9.8344 C   0  0  0  0  0  0  0  0  0  0  0  0
   28.1276  -26.1780   -9.3528 C   0  0  0  0  0  0  0  0  0  0  0  0
   27.8420  -26.9997   -9.8459 C   0  0  0  0  0  0  0  0  0  0  0  0
   28.4972  -27.4920  -10.4189 O   0  0  0  0  0  0  0  0  0  0  0  0
   26.9012  -27.3292   -9.7659 N   0  0  0  0  0  0  0  0  0  0  0  0
   26.2562  -26.8446   -9.2018 H   0  0  0  0  0  0  0  0  0  0  0  0
   26.6200  -28.1383  -10.2514 H   0  0  0  0  0  0  0  0  0  0  0  0
   23.3684  -23.1094   -7.8528 C   0  0  0  0  0  0  0  0  0  0  0  0
   22.9599  -22.2144   -7.6740 O   0  0  0  0  0  0  0  0  0  0  0  0
   22.0740  -22.0094   -8.0120 H   0  0  0  0  0  0  0  0  0  0  0  0
   23.5196  -24.7530   -4.7523 C   0  0  0  0  0  0  0  0  0  0  0  0
   22.6462  -25.0829   -4.3940 C   0  0  0  0  0  0  0  0  0  0  0  0
   22.4383  -25.2716   -3.4343 C   0  0  0  0  0  0  0  0  0  0  0  0
   21.4909  -25.5875   -3.3797 N   0  0  0  0  0  0  0  0  0  0  0  0
   21.1135  -25.5939   -4.3058 C   0  0  0  0  0  0  0  0  0  0  0  0
   21.8276  -25.2821   -4.9326 N   0  0  0  0  0  0  0  0  0  0  0  0
   21.7399  -25.1877   -5.9086 H   0  0  0  0  0  0  0  0  0  0  0  0
 95 96  1  0  0  0
 95 97  1  0  0  0
 95 98  1  0  0  0
 96 91  1  0  0  0
 96 99  1  0  0  0
 91 92  2  0  0  0
 91 93  1  0  0  0
 93 90  1  0  0  0
 93 94  1  0  0  0
 90103  1  0  0  0
 90 86  1  0  0  0
103104  1  0  0  0
104105  1  0  0  0
105106  2  0  0  0
105107  1  0  0  0
107108  1  0  0  0
107109  1  0  0  0
 86 87  2  0  0  0
 86 88  1  0  0  0
 88 85  1  0  0  0
 88 89  1  0  0  0
 85110  1  0  0  0
 85 81  1  0  0  0
110111  1  0  0  0
111112  1  0  0  0
112113  2  0  0  0
112114  1  0  0  0
114115  1  0  0  0
114116  1  0  0  0
 81 82  2  0  0  0
 81 83  1  0  0  0
 83 79  1  0  0  0
 83 84  1  0  0  0
 79 80  1  0  0  0
 79 75  1  0  0  0
 75 76  2  0  0  0
 75 77  1  0  0  0
 77 74  1  0  0  0
 77 78  1  0  0  0
 74117  1  0  0  0
 74 70  1  0  0  0
117118  1  0  0  0
118119  1  0  0  0
 70 71  2  0  0  0
 70 72  1  0  0  0
 72 69  1  0  0  0
 72 73  1  0  0  0
 69120  1  0  0  0
 69 65  1  0  0  0
120121  1  0  0  0
121125  1  0  0  0
121122  2  0  0  0
122123  1  0  0  0
123124  2  0  0  0
124125  1  0  0  0
125126  1  0  0  0
 65 66  2  0  0  0
 65 67  1  0  0  0
 67  1  1  0  0  0
 67 68  1  0  0  0
  1  2  1  0  0  0
  1 10  1  0  0  0
  2  8  2  0  0  0
  2  3  1  0  0  0
  3  4  2  0  0  0
  4  5  1  0  0  0
  5  6  1  0  0  0
  5  7  2  0  0  0
  6  9  1  0  0  0
  7  8  1  0  0  0
 10 11  2  0  0  0
 10 12  1  0  0  0
 12 14  1  0  0  0
 12 13  1  0  0  0
 14 58  1  0  0  0
 14 15  1  0  0  0
 58 59  1  0  0  0
 59 60  1  0  0  0
 60 61  1  0  0  0
 61 62  1  0  0  0
 62 63  1  0  0  0
 62 64  1  0  0  0
 15 16  2  0  0  0
 15 17  1  0  0  0
 17 19  1  0  0  0
 17 18  1  0  0  0
 19 51  1  0  0  0
 19 20  1  0  0  0
 51 52  1  0  0  0
 52 53  1  0  0  0
 53 54  2  0  0  0
 53 55  1  0  0  0
 55 56  1  0  0  0
 55 57  1  0  0  0
 20 21  2  0  0  0
 20 22  1  0  0  0
 22 24  1  0  0  0
 22 23  1  0  0  0
 24 44  1  0  0  0
 24 25  1  0  0  0
 44 45  1  0  0  0
 45 49  1  0  0  0
 45 46  2  0  0  0
 46 47  1  0  0  0
 47 48  2  0  0  0
 48 49  1  0  0  0
 49 50  1  0  0  0
 25 26  2  0  0  0
 25 27  1  0  0  0
 27 29  1  0  0  0
 27 28  1  0  0  0
 29 41  1  0  0  0
 29 30  1  0  0  0
 41 42  1  0  0  0
 42 43  1  0  0  0
 30 31  2  0  0  0
 30 32  1  0  0  0
 32 36  1  0  0  0
 32 33  1  0  0  0
 33 34  1  0  0  0
 34 35  1  0  0  0
 35 36  1  0  0  0
 36 37  1  0  0  0
 37 38  1  0  0  0
 37 39  2  0  0  0
 38 40  1  0  0  0
 99100  1  0  0  0
 99101  1  0  0  0
100102  1  0  0  0
M  END
> <minimizedAffinity>
-4.26592

$$$$



126129  0  0  0  0  0  0  0  0999 V2000
   24.4973  -28.3706   -3.9712 C   0  0  0  0  0  0  0  0  0  0  0  0
   24.0787  -28.9297   -3.2555 C   0  0  0  0  0  0  0  0  0  0  0  0
   24.0198  -28.5821   -2.3198 C   0  0  0  0  0  0  0  0  0  0  0  0
   23.6011  -29.1412   -1.6041 C   0  0  0  0  0  0  0  0  0  0  0  0
   23.2415  -30.0480   -1.8242 C   0  0  0  0  0  0  0  0  0  0  0  0
   22.8229  -30.6070   -1.1085 O   0  0  0  0  0  0  0  0  0  0  0  0
   23.3004  -30.3956   -2.7600 C   0  0  0  0  0  0  0  0  0  0  0  0
   23.7190  -29.8365   -3.4756 C   0  0  0  0  0  0  0  0  0  0  0  0
   22.7676  -30.2813   -0.2317 H   0  0  0  0  0  0  0  0  0  0  0  0
   25.4905  -28.3688   -4.0874 C   0  0  0  0  0  0  0  0  0  0  0  0
   26.0789  -28.0260   -3.3551 O   0  0  0  0  0  0  0  0  0  0  0  0
   25.8952  -28.7096   -4.9359 N   0  0  0  0  0  0  0  0  0  0  0  0
   25.3159  -29.0471   -5.6568 H   0  0  0  0  0  0  0  0  0  0  0  0
   26.8885  -28.7078   -5.0521 C   0  0  0  0  0  0  0  0  0  0  0  0
   27.3189  -28.0456   -5.6655 C   0  0  0  0  0  0  0  0  0  0  0  0
   26.7935  -27.6435   -6.4153 O   0  0  0  0  0  0  0  0  0  0  0  0
   28.2748  -27.7854   -5.5290 N   0  0  0  0  0  0  0  0  0  0  0  0
   28.7921  -28.1812   -4.7908 H   0  0  0  0  0  0  0  0  0  0  0  0
   28.7052  -27.1232   -6.1423 C   0  0  0  0  0  0  0  0  0  0  0  0
   29.2486  -27.4410   -6.9193 C   0  0  0  0  0  0  0  0  0  0  0  0
   29.0847  -27.0651   -7.8313 O   0  0  0  0  0  0  0  0  0  0  0  0
   29.9562  -28.1348   -6.7842 N   0  0  0  0  0  0  0  0  0  0  0  0
   30.1176  -28.5048   -5.8863 H   0  0  0  0  0  0  0  0  0  0  0  0
   30.4996  -28.4526   -7.5611 C   0  0  0  0  0  0  0  0  0  0  0  0
   31.3666  -28.0054   -7.7811 C   0  0  0  0  0  0  0  0  0  0  0  0
   32.0275  -27.8122   -7.0561 O   0  0  0  0  0  0  0  0  0  0  0  0
   31.5725  -27.7516   -8.7262 N   0  0  0  0  0  0  0  0  0  0  0  0
   30.9217  -27.9419   -9.4399 H   0  0  0  0  0  0  0  0  0  0  0  0
   32.4395  -27.3044   -8.9462 C   0  0  0  0  0  0  0  0  0  0  0  0
   32.4641  -26.3202   -9.1216 C   0  0  0  0  0  0  0  0  0  0  0  0
   32.9630  -25.7142   -8.5021 O   0  0  0  0  0  0  0  0  0  0  0  0
   31.9897  -25.9421   -9.9167 N   0  0  0  0  0  0  0  0  0  0  0  0
   31.4664  -26.4626  -10.5914 C   0  0  0  0  0  0  0  0  0  0  0  0
   31.1087  -25.8192  -11.2682 C   0  0  0  0  0  0  0  0  0  0  0  0
   31.4110  -24.9012  -11.0118 C   0  0  0  0  0  0  0  0  0  0  0  0
   31.9554  -24.9771  -10.1766 C   0  0  0  0  0  0  0  0  0  0  0  0
   32.3894  -24.2208   -9.6871 C   0  0  0  0  0  0  0  0  0  0  0  0
   33.3273  -23.9540   -9.9093 O   0  0  0  0  0  0  0  0  0  0  0  0
   31.8856  -23.7312   -8.9754 O   0  0  0  0  0  0  0  0  0  0  0  0
   33.7993  -24.4128  -10.5761 H   0  0  0  0  0  0  0  0  0  0  0  0
   33.2819  -27.8414   -8.9907 C   0  0  0  0  0  0  0  0  0  0  0  0
   33.4457  -28.4514   -9.7660 S   0  0  0  0  0  0  0  0  0  0  0  0
   32.5227  -28.5507  -10.7599 H   0  0  0  0  0  0  0  0  0  0  0  0
   30.1761  -29.2176   -8.1180 C   0  0  0  0  0  0  0  0  0  0  0  0
   30.1970  -30.1474   -7.7508 C   0  0  0  0  0  0  0  0  0  0  0  0
   29.4335  -30.7932   -7.7416 C   0  0  0  0  0  0  0  0  0  0  0  0
   29.7497  -31.6396   -7.3134 N   0  0  0  0  0  0  0  0  0  0  0  0
   30.7088  -31.5171   -7.0577 C   0  0  0  0  0  0  0  0  0  0  0  0
   30.9852  -30.5948   -7.3281 N   0  0  0  0  0  0  0  0  0  0  0  0
   31.8768  -30.1972   -7.2005 H   0  0  0  0  0  0  0  0  0  0  0  0
   28.5921  -26.1431   -5.9788 C   0  0  0  0  0  0  0  0  0  0  0  0
   29.3737  -25.5914   -5.6878 C   0  0  0  0  0  0  0  0  0  0  0  0
   29.2683  -24.6058   -5.5551 C   0  0  0  0  0  0  0  0  0  0  0  0
   29.7347  -24.1508   -4.7965 O   0  0  0  0  0  0  0  0  0  0  0  0
   28.6964  -24.0754   -6.1808 N   0  0  0  0  0  0  0  0  0  0  0  0
   28.2373  -24.5234   -6.9276 H   0  0  0  0  0  0  0  0  0  0  0  0
   28.5926  -23.1051   -6.0501 H   0  0  0  0  0  0  0  0  0  0  0  0
   27.4513  -29.3682   -4.5550 C   0  0  0  0  0  0  0  0  0  0  0  0
   27.4285  -30.3354   -4.8082 C   0  0  0  0  0  0  0  0  0  0  0  0
   27.9577  -31.0022   -4.2834 C   0  0  0  0  0  0  0  0  0  0  0  0
   27.7545  -31.9778   -4.3656 C   0  0  0  0  0  0  0  0  0  0  0  0
   28.5002  -32.6381   -4.4543 N   0  0  0  0  0  0  0  0  0  0  0  0
   29.4682  -32.3164   -4.4610 H   0  0  0  0  0  0  0  0  0  0  0  0
   28.2930  -33.6333   -4.5381 H   0  0  0  0  0  0  0  0  0  0  0  0
   23.8270  -26.8326   -4.4013 C   0  0  0  0  0  0  0  0  0  0  0  0
   24.3059  -26.4088   -3.6324 O   0  0  0  0  0  0  0  0  0  0  0  0
   23.9227  -27.8134   -4.5707 N   0  0  0  0  0  0  0  0  0  0  0  0
   23.4512  -28.2306   -5.3276 H   0  0  0  0  0  0  0  0  0  0  0  0
   23.2524  -26.2754   -5.0008 C   0  0  0  0  0  0  0  0  0  0  0  0
   24.0083  -25.2918   -6.2095 C   0  0  0  0  0  0  0  0  0  0  0  0
   24.1199  -26.0955   -6.7938 O   0  0  0  0  0  0  0  0  0  0  0  0
   23.5745  -25.3817   -5.3130 N   0  0  0  0  0  0  0  0  0  0  0  0
   23.4646  -24.5903   -4.7377 H   0  0  0  0  0  0  0  0  0  0  0  0
   24.3305  -24.3981   -6.5217 C   0  0  0  0  0  0  0  0  0  0  0  0
   23.4372  -23.3651   -7.5870 C   0  0  0  0  0  0  0  0  0  0  0  0
   22.9707  -22.9584   -6.8016 O   0  0  0  0  0  0  0  0  0  0  0  0
   24.1170  -24.0849   -7.4471 N   0  0  0  0  0  0  0  0  0  0  0  0
   24.5762  -24.4853   -8.2204 H   0  0  0  0  0  0  0  0  0  0  0  0
   23.2237  -23.0519   -8.5125 C   0  0  0  0  0  0  0  0  0  0  0  0
   22.5470  -22.3291   -8.6521 C   0  0  0  0  0  0  0  0  0  0  0  0
   23.1797  -24.0528   -9.9253 C   0  0  0  0  0  0  0  0  0  0  0  0
   22.2092  -24.2342   -9.7666 O   0  0  0  0  0  0  0  0  0  0  0  0
   23.6870  -23.4617   -9.2982 N   0  0  0  0  0  0  0  0  0  0  0  0
   24.6425  -23.2831   -9.4545 H   0  0  0  0  0  0  0  0  0  0  0  0
   23.6430  -24.4626  -10.7112 C   0  0  0  0  0  0  0  0  0  0  0  0
   24.9557  -25.5416  -10.3757 C   0  0  0  0  0  0  0  0  0  0  0  0
   24.3037  -26.2543  -10.1170 O   0  0  0  0  0  0  0  0  0  0  0  0
   24.6253  -24.6458  -10.6728 N   0  0  0  0  0  0  0  0  0  0  0  0
   25.2671  -23.9441  -10.9276 H   0  0  0  0  0  0  0  0  0  0  0  0
   25.9380  -25.7248  -10.3374 C   0  0  0  0  0  0  0  0  0  0  0  0
   26.9754  -24.7301   -9.3707 C   0  0  0  0  0  0  0  0  0  0  0  0
   26.7180  -25.2520   -8.5575 O   0  0  0  0  0  0  0  0  0  0  0  0
   26.5854  -24.9665  -10.2607 N   0  0  0  0  0  0  0  0  0  0  0  0
   26.8388  -24.4527  -11.0614 H   0  0  0  0  0  0  0  0  0  0  0  0
   28.6004  -24.1572   -9.1942 N   0  0  0  0  0  0  0  0  0  0  0  0
   27.6228  -23.9718   -9.2941 C   0  0  0  0  0  0  0  0  0  0  0  0
   29.2608  -23.3838   -9.1161 H   0  0  0  0  0  0  0  0  0  0  0  0
   28.9372  -25.1198   -9.1706 H   0  0  0  0  0  0  0  0  0  0  0  0
   27.2927  -23.0282   -9.3172 C   0  0  0  0  0  0  0  0  0  0  0  0
   26.6501  -22.7061   -8.6219 O   0  0  0  0  0  0  0  0  0  0  0  0
   27.6050  -22.4067  -10.0356 C   0  0  0  0  0  0  0  0  0  0  0  0
   26.3471  -23.3090   -7.9251 H   0  0  0  0  0  0  0  0  0  0  0  0
   26.2729  -26.6662  -10.3757 C   0  0  0  0  0  0  0  0  0  0  0  0
   26.6908  -27.0144  -11.2149 C   0  0  0  0  0  0  0  0  0  0  0  0
   27.2416  -27.8488  -11.1903 C   0  0  0  0  0  0  0  0  0  0  0  0
   28.1678  -27.8256  -10.8141 O   0  0  0  0  0  0  0  0  0  0  0  0
   26.8661  -28.7063  -11.5419 N   0  0  0  0  0  0  0  0  0  0  0  0
   25.9542  -28.7291  -11.9123 H   0  0  0  0  0  0  0  0  0  0  0  0
   27.4083  -29.5276  -11.5177 H   0  0  0  0  0  0  0  0  0  0  0  0
   23.1239  -24.6892  -11.5353 C   0  0  0  0  0  0  0  0  0  0  0  0
   23.2626  -24.1627  -12.3741 C   0  0  0  0  0  0  0  0  0  0  0  0
   22.7454  -24.3909  -13.1989 C   0  0  0  0  0  0  0  0  0  0  0  0
   21.8187  -24.0359  -13.3223 O   0  0  0  0  0  0  0  0  0  0  0  0
   23.1549  -24.9742  -13.9005 N   0  0  0  0  0  0  0  0  0  0  0  0
   24.0672  -25.3237  -13.7791 H   0  0  0  0  0  0  0  0  0  0  0  0
   22.6456  -25.1989  -14.7126 H   0  0  0  0  0  0  0  0  0  0  0  0
   24.8661  -23.8175   -5.9085 C   0  0  0  0  0  0  0  0  0  0  0  0
   25.8647  -23.8692   -5.9164 O   0  0  0  0  0  0  0  0  0  0  0  0
   26.3842  -23.3060   -5.3215 H   0  0  0  0  0  0  0  0  0  0  0  0
   22.3555  -26.6120   -5.2881 C   0  0  0  0  0  0  0  0  0  0  0  0
   21.5258  -26.2478   -4.8651 C   0  0  0  0  0  0  0  0  0  0  0  0
   20.6554  -26.0797   -5.3277 C   0  0  0  0  0  0  0  0  0  0  0  0
   20.0124  -25.7157   -4.6538 N   0  0  0  0  0  0  0  0  0  0  0  0
   20.4855  -25.6590   -3.7746 C   0  0  0  0  0  0  0  0  0  0  0  0
   21.4209  -25.9878   -3.9053 N   0  0  0  0  0  0  0  0  0  0  0  0
   22.1163  -26.0454   -3.2107 H   0  0  0  0  0  0  0  0  0  0  0  0
 95 96  1  0  0  0
 95 97  1  0  0  0
 95 98  1  0  0  0
 96 91  1  0  0  0
 96 99  1  0  0  0
 91 92  2  0  0  0
 91 93  1  0  0  0
 93 90  1  0  0  0
 93 94  1  0  0  0
 90103  1  0  0  0
 90 86  1  0  0  0
103104  1  0  0  0
104105  1  0  0  0
105106  2  0  0  0
105107  1  0  0  0
107108  1  0  0  0
107109  1  0  0  0
 86 87  2  0  0  0
 86 88  1  0  0  0
 88 85  1  0  0  0
 88 89  1  0  0  0
 85110  1  0  0  0
 85 81  1  0  0  0
110111  1  0  0  0
111112  1  0  0  0
112113  2  0  0  0
112114  1  0  0  0
114115  1  0  0  0
114116  1  0  0  0
 81 82  2  0  0  0
 81 83  1  0  0  0
 83 79  1  0  0  0
 83 84  1  0  0  0
 79 80  1  0  0  0
 79 75  1  0  0  0
 75 76  2  0  0  0
 75 77  1  0  0  0
 77 74  1  0  0  0
 77 78  1  0  0  0
 74117  1  0  0  0
 74 70  1  0  0  0
117118  1  0  0  0
118119  1  0  0  0
 70 71  2  0  0  0
 70 72  1  0  0  0
 72 69  1  0  0  0
 72 73  1  0  0  0
 69120  1  0  0  0
 69 65  1  0  0  0
120121  1  0  0  0
121125  1  0  0  0
121122  2  0  0  0
122123  1  0  0  0
123124  2  0  0  0
124125  1  0  0  0
125126  1  0  0  0
 65 66  2  0  0  0
 65 67  1  0  0  0
 67  1  1  0  0  0
 67 68  1  0  0  0
  1  2  1  0  0  0
  1 10  1  0  0  0
  2  8  2  0  0  0
  2  3  1  0  0  0
  3  4  2  0  0  0
  4  5  1  0  0  0
  5  6  1  0  0  0
  5  7  2  0  0  0
  6  9  1  0  0  0
  7  8  1  0  0  0
 10 11  2  0  0  0
 10 12  1  0  0  0
 12 14  1  0  0  0
 12 13  1  0  0  0
 14 58  1  0  0  0
 14 15  1  0  0  0
 58 59  1  0  0  0
 59 60  1  0  0  0
 60 61  1  0  0  0
 61 62  1  0  0  0
 62 63  1  0  0  0
 62 64  1  0  0  0
 15 16  2  0  0  0
 15 17  1  0  0  0
 17 19  1  0  0  0
 17 18  1  0  0  0
 19 51  1  0  0  0
 19 20  1  0  0  0
 51 52  1  0  0  0
 52 53  1  0  0  0
 53 54  2  0  0  0
 53 55  1  0  0  0
 55 56  1  0  0  0
 55 57  1  0  0  0
 20 21  2  0  0  0
 20 22  1  0  0  0
 22 24  1  0  0  0
 22 23  1  0  0  0
 24 44  1  0  0  0
 24 25  1  0  0  0
 44 45  1  0  0  0
 45 49  1  0  0  0
 45 46  2  0  0  0
 46 47  1  0  0  0
 47 48  2  0  0  0
 48 49  1  0  0  0
 49 50  1  0  0  0
 25 26  2  0  0  0
 25 27  1  0  0  0
 27 29  1  0  0  0
 27 28  1  0  0  0
 29 41  1  0  0  0
 29 30  1  0  0  0
 41 42  1  0  0  0
 42 43  1  0  0  0
 30 31  2  0  0  0
 30 32  1  0  0  0
 32 36  1  0  0  0
 32 33  1  0  0  0
 33 34  1  0  0  0
 34 35  1  0  0  0
 35 36  1  0  0  0
 36 37  1  0  0  0
 37 38  1  0  0  0
 37 39  2  0  0  0
 38 40  1  0  0  0
 99100  1  0  0  0
 99101  1  0  0  0
100102  1  0  0  0
M  END
> <minimizedAffinity>
-4.15187

$$$$



126129  0  0  0  0  0  0  0  0999 V2000
   29.6756  -26.7622   -6.2172 C   0  0  0  0  0  0  0  0  0  0  0  0
   29.7818  -25.7849   -6.4005 C   0  0  0  0  0  0  0  0  0  0  0  0
   29.8138  -25.1345   -5.6416 C   0  0  0  0  0  0  0  0  0  0  0  0
   29.9200  -24.1571   -5.8249 C   0  0  0  0  0  0  0  0  0  0  0  0
   29.9942  -23.8302   -6.7670 C   0  0  0  0  0  0  0  0  0  0  0  0
   30.1003  -22.8529   -6.9502 O   0  0  0  0  0  0  0  0  0  0  0  0
   29.9621  -24.4806   -7.5259 C   0  0  0  0  0  0  0  0  0  0  0  0
   29.8560  -25.4579   -7.3427 C   0  0  0  0  0  0  0  0  0  0  0  0
   30.1304  -22.2435   -6.2391 H   0  0  0  0  0  0  0  0  0  0  0  0
   28.8222  -27.2257   -6.4556 C   0  0  0  0  0  0  0  0  0  0  0  0
   28.7247  -27.6656   -7.3484 O   0  0  0  0  0  0  0  0  0  0  0  0
   28.0664  -27.2494   -5.8013 N   0  0  0  0  0  0  0  0  0  0  0  0
   28.1625  -26.8163   -4.9224 H   0  0  0  0  0  0  0  0  0  0  0  0
   27.2129  -27.7130   -6.0397 C   0  0  0  0  0  0  0  0  0  0  0  0
   26.4956  -27.2186   -6.5306 C   0  0  0  0  0  0  0  0  0  0  0  0
   25.7844  -27.7242   -7.0189 O   0  0  0  0  0  0  0  0  0  0  0  0
   26.4896  -26.2186   -6.5332 N   0  0  0  0  0  0  0  0  0  0  0  0
   27.1898  -25.7209   -6.0524 H   0  0  0  0  0  0  0  0  0  0  0  0
   25.7722  -25.7242   -7.0241 C   0  0  0  0  0  0  0  0  0  0  0  0
   25.0998  -25.1851   -6.5170 C   0  0  0  0  0  0  0  0  0  0  0  0
   25.4045  -24.5016   -5.8536 O   0  0  0  0  0  0  0  0  0  0  0  0
   24.1226  -25.3293   -6.6733 N   0  0  0  0  0  0  0  0  0  0  0  0
   23.8227  -26.0022   -7.3265 H   0  0  0  0  0  0  0  0  0  0  0  0
   23.4502  -24.7902   -6.1663 C   0  0  0  0  0  0  0  0  0  0  0  0
   23.0425  -25.1576   -5.3303 C   0  0  0  0  0  0  0  0  0  0  0  0
   22.8900  -24.5593   -4.5437 O   0  0  0  0  0  0  0  0  0  0  0  0
   22.7874  -26.1232   -5.2810 N   0  0  0  0  0  0  0  0  0  0  0  0
   22.9375  -26.7122   -6.0554 H   0  0  0  0  0  0  0  0  0  0  0  0
   22.3797  -26.4906   -4.4451 C   0  0  0  0  0  0  0  0  0  0  0  0
   22.9331  -27.0388   -3.8180 C   0  0  0  0  0  0  0  0  0  0  0  0
   23.2013  -26.6647   -2.9303 O   0  0  0  0  0  0  0  0  0  0  0  0
   23.2182  -27.9612   -4.0787 N   0  0  0  0  0  0  0  0  0  0  0  0
   23.0020  -28.4220   -4.9395 C   0  0  0  0  0  0  0  0  0  0  0  0
   23.4197  -29.3303   -4.9170 C   0  0  0  0  0  0  0  0  0  0  0  0
   23.8941  -29.4308   -4.0425 C   0  0  0  0  0  0  0  0  0  0  0  0
   23.7695  -28.5847   -3.5244 C   0  0  0  0  0  0  0  0  0  0  0  0
   24.1326  -28.3953   -2.6121 C   0  0  0  0  0  0  0  0  0  0  0  0
   23.5855  -28.6073   -1.8023 O   0  0  0  0  0  0  0  0  0  0  0  0
   25.0427  -27.9937   -2.5095 O   0  0  0  0  0  0  0  0  0  0  0  0
   22.7327  -28.9835   -1.8983 H   0  0  0  0  0  0  0  0  0  0  0  0
   21.4186  -26.3097   -4.2361 C   0  0  0  0  0  0  0  0  0  0  0  0
   20.7000  -26.6944   -4.8155 S   0  0  0  0  0  0  0  0  0  0  0  0
   21.0297  -27.4634   -5.8876 H   0  0  0  0  0  0  0  0  0  0  0  0
   23.1855  -23.8837   -6.4951 C   0  0  0  0  0  0  0  0  0  0  0  0
   22.6720  -23.7916   -7.3483 C   0  0  0  0  0  0  0  0  0  0  0  0
   22.9518  -23.2609   -8.1484 C   0  0  0  0  0  0  0  0  0  0  0  0
   22.2414  -23.3553   -8.8457 N   0  0  0  0  0  0  0  0  0  0  0  0
   21.5224  -23.9444   -8.4767 C   0  0  0  0  0  0  0  0  0  0  0  0
   21.7886  -24.2140   -7.5512 N   0  0  0  0  0  0  0  0  0  0  0  0
   21.2717  -24.7936   -6.9461 H   0  0  0  0  0  0  0  0  0  0  0  0
   25.7274  -25.7690   -8.0221 C   0  0  0  0  0  0  0  0  0  0  0  0
   26.2489  -25.1198   -8.5757 C   0  0  0  0  0  0  0  0  0  0  0  0
   26.4106  -25.3058   -9.5448 C   0  0  0  0  0  0  0  0  0  0  0  0
   27.1408  -25.9318   -9.8188 O   0  0  0  0  0  0  0  0  0  0  0  0
   25.8421  -24.8660  -10.2400 N   0  0  0  0  0  0  0  0  0  0  0  0
   25.1232  -24.2497   -9.9702 H   0  0  0  0  0  0  0  0  0  0  0  0
   26.0012  -25.0491  -11.1941 H   0  0  0  0  0  0  0  0  0  0  0  0
   27.0769  -28.6709   -5.7871 C   0  0  0  0  0  0  0  0  0  0  0  0
   27.2837  -28.9772   -4.8579 C   0  0  0  0  0  0  0  0  0  0  0  0
   27.2696  -29.9527   -4.6382 C   0  0  0  0  0  0  0  0  0  0  0  0
   27.9225  -30.3264   -3.9794 C   0  0  0  0  0  0  0  0  0  0  0  0
   27.5980  -30.6973   -3.1092 N   0  0  0  0  0  0  0  0  0  0  0  0
   26.6010  -30.6944   -2.8936 H   0  0  0  0  0  0  0  0  0  0  0  0
   28.2640  -31.0784   -2.4373 H   0  0  0  0  0  0  0  0  0  0  0  0
   31.0226  -27.8414   -6.3617 C   0  0  0  0  0  0  0  0  0  0  0  0
   30.8753  -27.8931   -7.3495 O   0  0  0  0  0  0  0  0  0  0  0  0
   30.4228  -27.2759   -5.7956 N   0  0  0  0  0  0  0  0  0  0  0  0
   30.5678  -27.2250   -4.8232 H   0  0  0  0  0  0  0  0  0  0  0  0
   31.7698  -28.3551   -5.9401 C   0  0  0  0  0  0  0  0  0  0  0  0
   33.3527  -27.6536   -5.9858 C   0  0  0  0  0  0  0  0  0  0  0  0
   33.0986  -27.0318   -5.2450 O   0  0  0  0  0  0  0  0  0  0  0  0
   32.6883  -28.3152   -6.3334 N   0  0  0  0  0  0  0  0  0  0  0  0
   32.9385  -28.9274   -7.0627 H   0  0  0  0  0  0  0  0  0  0  0  0
   34.2713  -27.6137   -6.3791 C   0  0  0  0  0  0  0  0  0  0  0  0
   35.5445  -28.7401   -6.0473 C   0  0  0  0  0  0  0  0  0  0  0  0
   35.2370  -29.3116   -6.8081 O   0  0  0  0  0  0  0  0  0  0  0  0
   35.0616  -27.8911   -5.8328 N   0  0  0  0  0  0  0  0  0  0  0  0
   35.3642  -27.3284   -5.0838 H   0  0  0  0  0  0  0  0  0  0  0  0
   36.3348  -29.0175   -5.5010 C   0  0  0  0  0  0  0  0  0  0  0  0
   37.0707  -29.5491   -5.9204 C   0  0  0  0  0  0  0  0  0  0  0  0
   37.2594  -28.4618   -4.1460 C   0  0  0  0  0  0  0  0  0  0  0  0
   38.0753  -28.4142   -4.7223 O   0  0  0  0  0  0  0  0  0  0  0  0
   36.3891  -28.7635   -4.5354 N   0  0  0  0  0  0  0  0  0  0  0  0
   35.5859  -28.8103   -3.9681 H   0  0  0  0  0  0  0  0  0  0  0  0
   37.3138  -28.2077   -3.1803 C   0  0  0  0  0  0  0  0  0  0  0  0
   37.4655  -26.5092   -2.8766 C   0  0  0  0  0  0  0  0  0  0  0  0
   36.5081  -26.3778   -3.1337 O   0  0  0  0  0  0  0  0  0  0  0  0
   37.8683  -27.4242   -2.8999 N   0  0  0  0  0  0  0  0  0  0  0  0
   38.8109  -27.5536   -2.6469 H   0  0  0  0  0  0  0  0  0  0  0  0
   38.0200  -25.7257   -2.5963 C   0  0  0  0  0  0  0  0  0  0  0  0
   37.9321  -25.1916   -0.9510 C   0  0  0  0  0  0  0  0  0  0  0  0
   37.0693  -24.7262   -1.1482 O   0  0  0  0  0  0  0  0  0  0  0  0
   38.4074  -25.6914   -1.6751 N   0  0  0  0  0  0  0  0  0  0  0  0
   39.2569  -26.1497   -1.4810 H   0  0  0  0  0  0  0  0  0  0  0  0
   38.6979  -24.3011    0.3220 N   0  0  0  0  0  0  0  0  0  0  0  0
   38.3196  -25.1573   -0.0297 C   0  0  0  0  0  0  0  0  0  0  0  0
   39.0931  -24.2660    1.2616 H   0  0  0  0  0  0  0  0  0  0  0  0
   38.6884  -23.4627   -0.2589 H   0  0  0  0  0  0  0  0  0  0  0  0
   38.3289  -25.9793    0.5397 C   0  0  0  0  0  0  0  0  0  0  0  0
   37.4710  -26.4408    0.7655 O   0  0  0  0  0  0  0  0  0  0  0  0
   39.1961  -26.3397    0.8834 C   0  0  0  0  0  0  0  0  0  0  0  0
   36.6298  -26.0912    0.4322 H   0  0  0  0  0  0  0  0  0  0  0  0
   38.1871  -24.9765   -3.2372 C   0  0  0  0  0  0  0  0  0  0  0  0
   39.0514  -24.9303   -3.7379 C   0  0  0  0  0  0  0  0  0  0  0  0
   39.3943  -24.0490   -4.0632 C   0  0  0  0  0  0  0  0  0  0  0  0
   40.0499  -23.5332   -3.5117 O   0  0  0  0  0  0  0  0  0  0  0  0
   39.0816  -23.6835   -4.9399 N   0  0  0  0  0  0  0  0  0  0  0  0
   38.4362  -24.1913   -5.4828 H   0  0  0  0  0  0  0  0  0  0  0  0
   39.4192  -22.8159   -5.2601 H   0  0  0  0  0  0  0  0  0  0  0  0
   36.8137  -28.7371   -2.4950 C   0  0  0  0  0  0  0  0  0  0  0  0
   37.3100  -29.1976   -1.7590 C   0  0  0  0  0  0  0  0  0  0  0  0
   36.8063  -29.6685   -1.0348 C   0  0  0  0  0  0  0  0  0  0  0  0
   36.4564  -30.5926   -1.1886 O   0  0  0  0  0  0  0  0  0  0  0  0
   36.6526  -29.2154   -0.1566 N   0  0  0  0  0  0  0  0  0  0  0  0
   36.9971  -28.3057   -0.0052 H   0  0  0  0  0  0  0  0  0  0  0  0
   36.1568  -29.6791    0.5564 H   0  0  0  0  0  0  0  0  0  0  0  0
   34.3995  -27.2963   -7.3187 C   0  0  0  0  0  0  0  0  0  0  0  0
   34.3740  -26.3179   -7.5239 O   0  0  0  0  0  0  0  0  0  0  0  0
   34.4984  -26.0101   -8.4353 H   0  0  0  0  0  0  0  0  0  0  0  0
   31.5984  -28.9088   -5.1251 C   0  0  0  0  0  0  0  0  0  0  0  0
   31.6072  -29.9068   -5.1877 C   0  0  0  0  0  0  0  0  0  0  0  0
   32.1980  -30.5231   -4.6670 C   0  0  0  0  0  0  0  0  0  0  0  0
   31.9828  -31.4610   -4.9395 N   0  0  0  0  0  0  0  0  0  0  0  0
   31.2590  -31.4242   -5.6286 C   0  0  0  0  0  0  0  0  0  0  0  0
   31.0270  -30.4636   -5.7819 N   0  0  0  0  0  0  0  0  0  0  0  0
   30.3466  -30.1255   -6.4081 H   0  0  0  0  0  0  0  0  0  0  0  0
 95 96  1  0  0  0
 95 97  1  0  0  0
 95 98  1  0  0  0
 96 91  1  0  0  0
 96 99  1  0  0  0
 91 92  2  0  0  0
 91 93  1  0  0  0
 93 90  1  0  0  0
 93 94  1  0  0  0
 90103  1  0  0  0
 90 86  1  0  0  0
103104  1  0  0  0
104105  1  0  0  0
105106  2  0  0  0
105107  1  0  0  0
107108  1  0  0  0
107109  1  0  0  0
 86 87  2  0  0  0
 86 88  1  0  0  0
 88 85  1  0  0  0
 88 89  1  0  0  0
 85110  1  0  0  0
 85 81  1  0  0  0
110111  1  0  0  0
111112  1  0  0  0
112113  2  0  0  0
112114  1  0  0  0
114115  1  0  0  0
114116  1  0  0  0
 81 82  2  0  0  0
 81 83  1  0  0  0
 83 79  1  0  0  0
 83 84  1  0  0  0
 79 80  1  0  0  0
 79 75  1  0  0  0
 75 76  2  0  0  0
 75 77  1  0  0  0
 77 74  1  0  0  0
 77 78  1  0  0  0
 74117  1  0  0  0
 74 70  1  0  0  0
117118  1  0  0  0
118119  1  0  0  0
 70 71  2  0  0  0
 70 72  1  0  0  0
 72 69  1  0  0  0
 72 73  1  0  0  0
 69120  1  0  0  0
 69 65  1  0  0  0
120121  1  0  0  0
121125  1  0  0  0
121122  2  0  0  0
122123  1  0  0  0
123124  2  0  0  0
124125  1  0  0  0
125126  1  0  0  0
 65 66  2  0  0  0
 65 67  1  0  0  0
 67  1  1  0  0  0
 67 68  1  0  0  0
  1  2  1  0  0  0
  1 10  1  0  0  0
  2  8  2  0  0  0
  2  3  1  0  0  0
  3  4  2  0  0  0
  4  5  1  0  0  0
  5  6  1  0  0  0
  5  7  2  0  0  0
  6  9  1  0  0  0
  7  8  1  0  0  0
 10 11  2  0  0  0
 10 12  1  0  0  0
 12 14  1  0  0  0
 12 13  1  0  0  0
 14 58  1  0  0  0
 14 15  1  0  0  0
 58 59  1  0  0  0
 59 60  1  0  0  0
 60 61  1  0  0  0
 61 62  1  0  0  0
 62 63  1  0  0  0
 62 64  1  0  0  0
 15 16  2  0  0  0
 15 17  1  0  0  0
 17 19  1  0  0  0
 17 18  1  0  0  0
 19 51  1  0  0  0
 19 20  1  0  0  0
 51 52  1  0  0  0
 52 53  1  0  0  0
 53 54  2  0  0  0
 53 55  1  0  0  0
 55 56  1  0  0  0
 55 57  1  0  0  0
 20 21  2  0  0  0
 20 22  1  0  0  0
 22 24  1  0  0  0
 22 23  1  0  0  0
 24 44  1  0  0  0
 24 25  1  0  0  0
 44 45  1  0  0  0
 45 49  1  0  0  0
 45 46  2  0  0  0
 46 47  1  0  0  0
 47 48  2  0  0  0
 48 49  1  0  0  0
 49 50  1  0  0  0
 25 26  2  0  0  0
 25 27  1  0  0  0
 27 29  1  0  0  0
 27 28  1  0  0  0
 29 41  1  0  0  0
 29 30  1  0  0  0
 41 42  1  0  0  0
 42 43  1  0  0  0
 30 31  2  0  0  0
 30 32  1  0  0  0
 32 36  1  0  0  0
 32 33  1  0  0  0
 33 34  1  0  0  0
 34 35  1  0  0  0
 35 36  1  0  0  0
 36 37  1  0  0  0
 37 38  1  0  0  0
 37 39  2  0  0  0
 38 40  1  0  0  0
 99100  1  0  0  0
 99101  1  0  0  0
100102  1  0  0  0
M  END
> <minimizedAffinity>
-4.15177

$$$$



126129  0  0  0  0  0  0  0  0999 V2000
   33.1808  -31.3377   -2.2000 C   0  0  0  0  0  0  0  0  0  0  0  0
   33.2972  -31.8845   -1.3709 C   0  0  0  0  0  0  0  0  0  0  0  0
   33.6821  -32.8057   -1.4294 C   0  0  0  0  0  0  0  0  0  0  0  0
   33.7985  -33.3525   -0.6002 C   0  0  0  0  0  0  0  0  0  0  0  0
   33.5301  -32.9782    0.2874 C   0  0  0  0  0  0  0  0  0  0  0  0
   33.6466  -33.5250    1.1165 O   0  0  0  0  0  0  0  0  0  0  0  0
   33.1453  -32.0571    0.3459 C   0  0  0  0  0  0  0  0  0  0  0  0
   33.0288  -31.5102   -0.4832 C   0  0  0  0  0  0  0  0  0  0  0  0
   34.0072  -34.3881    1.0616 H   0  0  0  0  0  0  0  0  0  0  0  0
   33.9827  -31.0133   -2.7017 C   0  0  0  0  0  0  0  0  0  0  0  0
   34.5516  -31.6615   -3.2079 O   0  0  0  0  0  0  0  0  0  0  0  0
   34.2156  -30.0409   -2.6972 N   0  0  0  0  0  0  0  0  0  0  0  0
   33.6554  -29.4028   -2.1989 H   0  0  0  0  0  0  0  0  0  0  0  0
   35.0175  -29.7165   -3.1990 C   0  0  0  0  0  0  0  0  0  0  0  0
   35.9213  -29.7491   -2.7722 C   0  0  0  0  0  0  0  0  0  0  0  0
   36.6881  -30.1698   -3.2568 O   0  0  0  0  0  0  0  0  0  0  0  0
   36.0581  -29.3609   -1.8608 N   0  0  0  0  0  0  0  0  0  0  0  0
   35.3031  -28.9467   -1.3838 H   0  0  0  0  0  0  0  0  0  0  0  0
   36.9619  -29.3935   -1.4341 C   0  0  0  0  0  0  0  0  0  0  0  0
   37.6227  -28.6629   -1.6060 C   0  0  0  0  0  0  0  0  0  0  0  0
   38.5331  -28.8842   -1.9556 O   0  0  0  0  0  0  0  0  0  0  0  0
   37.3730  -27.7109   -1.4285 N   0  0  0  0  0  0  0  0  0  0  0  0
   36.4767  -27.4931   -1.0844 H   0  0  0  0  0  0  0  0  0  0  0  0
   38.0338  -26.9803   -1.6004 C   0  0  0  0  0  0  0  0  0  0  0  0
   37.9154  -26.3740   -2.3868 C   0  0  0  0  0  0  0  0  0  0  0  0
   37.1573  -25.7222   -2.4058 O   0  0  0  0  0  0  0  0  0  0  0  0
   38.5551  -26.4195   -3.1540 N   0  0  0  0  0  0  0  0  0  0  0  0
   39.3014  -27.0612   -3.1353 H   0  0  0  0  0  0  0  0  0  0  0  0
   38.4367  -25.8131   -3.9404 C   0  0  0  0  0  0  0  0  0  0  0  0
   39.0258  -25.0122   -4.0473 C   0  0  0  0  0  0  0  0  0  0  0  0
   38.6391  -24.0932   -3.9702 O   0  0  0  0  0  0  0  0  0  0  0  0
   40.0016  -25.1303   -4.2315 N   0  0  0  0  0  0  0  0  0  0  0  0
   40.4805  -26.0030   -4.3258 C   0  0  0  0  0  0  0  0  0  0  0  0
   41.4447  -25.8084   -4.5063 C   0  0  0  0  0  0  0  0  0  0  0  0
   41.5615  -24.8154   -4.5235 C   0  0  0  0  0  0  0  0  0  0  0  0
   40.6697  -24.3963   -4.3537 C   0  0  0  0  0  0  0  0  0  0  0  0
   40.4793  -23.4155   -4.3132 C   0  0  0  0  0  0  0  0  0  0  0  0
   40.1731  -22.9313   -5.1328 O   0  0  0  0  0  0  0  0  0  0  0  0
   40.5951  -22.9188   -3.4530 O   0  0  0  0  0  0  0  0  0  0  0  0
   40.0646  -23.3966   -5.9388 H   0  0  0  0  0  0  0  0  0  0  0  0
   37.7291  -26.0077   -4.6198 C   0  0  0  0  0  0  0  0  0  0  0  0
   37.7854  -26.8359   -5.1773 S   0  0  0  0  0  0  0  0  0  0  0  0
   38.8244  -27.6977   -5.0116 H   0  0  0  0  0  0  0  0  0  0  0  0
   38.8130  -26.8561   -0.9861 C   0  0  0  0  0  0  0  0  0  0  0  0
   38.7206  -26.2849   -0.1705 C   0  0  0  0  0  0  0  0  0  0  0  0
   38.4475  -26.5985    0.7389 C   0  0  0  0  0  0  0  0  0  0  0  0
   38.4432  -25.8072    1.3503 N   0  0  0  0  0  0  0  0  0  0  0  0
   38.7136  -25.0044    0.8188 C   0  0  0  0  0  0  0  0  0  0  0  0
   38.8850  -25.2997   -0.1212 N   0  0  0  0  0  0  0  0  0  0  0  0
   39.1663  -24.7219   -0.8670 H   0  0  0  0  0  0  0  0  0  0  0  0
   37.2049  -30.1567   -0.8353 C   0  0  0  0  0  0  0  0  0  0  0  0
   36.6868  -30.3178    0.0047 C   0  0  0  0  0  0  0  0  0  0  0  0
   36.7376  -31.2062    0.4609 C   0  0  0  0  0  0  0  0  0  0  0  0
   36.9487  -32.0284   -0.0678 O   0  0  0  0  0  0  0  0  0  0  0  0
   36.5775  -31.2724    1.4457 N   0  0  0  0  0  0  0  0  0  0  0  0
   36.3697  -30.4629    1.9662 H   0  0  0  0  0  0  0  0  0  0  0  0
   36.6275  -32.1471    1.8949 H   0  0  0  0  0  0  0  0  0  0  0  0
   34.9156  -29.3594   -4.1275 C   0  0  0  0  0  0  0  0  0  0  0  0
   34.4390  -28.4937   -4.2808 C   0  0  0  0  0  0  0  0  0  0  0  0
   34.2030  -28.2108   -5.2105 C   0  0  0  0  0  0  0  0  0  0  0  0
   33.6989  -27.3604   -5.3615 C   0  0  0  0  0  0  0  0  0  0  0  0
   32.8373  -27.3732   -5.8688 N   0  0  0  0  0  0  0  0  0  0  0  0
   32.4725  -28.2538   -6.2322 H   0  0  0  0  0  0  0  0  0  0  0  0
   32.3232  -26.5059   -6.0229 H   0  0  0  0  0  0  0  0  0  0  0  0
   31.8734  -31.6135   -3.3021 C   0  0  0  0  0  0  0  0  0  0  0  0
   32.4028  -32.3344   -3.7497 O   0  0  0  0  0  0  0  0  0  0  0  0
   32.2624  -31.1152   -2.5273 N   0  0  0  0  0  0  0  0  0  0  0  0
   31.7413  -30.4056   -2.0868 H   0  0  0  0  0  0  0  0  0  0  0  0
   30.9551  -31.3911   -3.6295 C   0  0  0  0  0  0  0  0  0  0  0  0
   30.8661  -30.4044   -5.0503 C   0  0  0  0  0  0  0  0  0  0  0  0
   31.1220  -29.6030   -4.5098 O   0  0  0  0  0  0  0  0  0  0  0  0
   30.7826  -31.2985   -4.6101 N   0  0  0  0  0  0  0  0  0  0  0  0
   30.5307  -32.0875   -5.1423 H   0  0  0  0  0  0  0  0  0  0  0  0
   30.6936  -30.3118   -6.0309 C   0  0  0  0  0  0  0  0  0  0  0  0
   29.1185  -30.1108   -6.7226 C   0  0  0  0  0  0  0  0  0  0  0  0
   29.0105  -31.1040   -6.7653 O   0  0  0  0  0  0  0  0  0  0  0  0
   29.9600  -29.7147   -6.3554 N   0  0  0  0  0  0  0  0  0  0  0  0
   30.0664  -28.7369   -6.3133 H   0  0  0  0  0  0  0  0  0  0  0  0
   28.3849  -29.5136   -7.0470 C   0  0  0  0  0  0  0  0  0  0  0  0
   27.9716  -29.6714   -7.9438 C   0  0  0  0  0  0  0  0  0  0  0  0
   27.8789  -27.8653   -6.8835 C   0  0  0  0  0  0  0  0  0  0  0  0
   28.0136  -27.7266   -7.8646 O   0  0  0  0  0  0  0  0  0  0  0  0
   28.0646  -28.7588   -6.4747 N   0  0  0  0  0  0  0  0  0  0  0  0
   27.9320  -28.8953   -5.5088 H   0  0  0  0  0  0  0  0  0  0  0  0
   27.5586  -27.1103   -6.3111 C   0  0  0  0  0  0  0  0  0  0  0  0
   26.1113  -27.1176   -5.3598 C   0  0  0  0  0  0  0  0  0  0  0  0
   26.6233  -27.4853   -4.5836 O   0  0  0  0  0  0  0  0  0  0  0  0
   26.5789  -26.9301   -6.2236 N   0  0  0  0  0  0  0  0  0  0  0  0
   26.0748  -26.5681   -6.9878 H   0  0  0  0  0  0  0  0  0  0  0  0
   25.1315  -26.9373   -5.2722 C   0  0  0  0  0  0  0  0  0  0  0  0
   24.4059  -25.3659   -5.3352 C   0  0  0  0  0  0  0  0  0  0  0  0
   24.3138  -25.4481   -6.3275 O   0  0  0  0  0  0  0  0  0  0  0  0
   24.8148  -26.1105   -4.8075 N   0  0  0  0  0  0  0  0  0  0  0  0
   24.9056  -26.0295   -3.8306 H   0  0  0  0  0  0  0  0  0  0  0  0
   23.4245  -24.6071   -4.1264 N   0  0  0  0  0  0  0  0  0  0  0  0
   24.0892  -24.5390   -4.8704 C   0  0  0  0  0  0  0  0  0  0  0  0
   23.1014  -23.7638   -3.6523 H   0  0  0  0  0  0  0  0  0  0  0  0
   23.0696  -25.5200   -3.8416 H   0  0  0  0  0  0  0  0  0  0  0  0
   24.4372  -23.6440   -5.1496 C   0  0  0  0  0  0  0  0  0  0  0  0
   25.3789  -23.3846   -4.9354 O   0  0  0  0  0  0  0  0  0  0  0  0
   23.8434  -23.0085   -5.6431 C   0  0  0  0  0  0  0  0  0  0  0  0
   25.9548  -24.0012   -4.4567 H   0  0  0  0  0  0  0  0  0  0  0  0
   24.4685  -27.5840   -5.6494 C   0  0  0  0  0  0  0  0  0  0  0  0
   24.0579  -28.2798   -5.0602 C   0  0  0  0  0  0  0  0  0  0  0  0
   23.2166  -28.7410   -5.3424 C   0  0  0  0  0  0  0  0  0  0  0  0
   22.3280  -28.3349   -5.1293 O   0  0  0  0  0  0  0  0  0  0  0  0
   23.2641  -29.6084   -5.8379 N   0  0  0  0  0  0  0  0  0  0  0  0
   24.1389  -30.0082   -6.0477 H   0  0  0  0  0  0  0  0  0  0  0  0
   22.4359  -30.0624   -6.1157 H   0  0  0  0  0  0  0  0  0  0  0  0
   28.2180  -26.5357   -5.8264 C   0  0  0  0  0  0  0  0  0  0  0  0
   28.5901  -25.7196   -6.2686 C   0  0  0  0  0  0  0  0  0  0  0  0
   29.2471  -25.1432   -5.7827 C   0  0  0  0  0  0  0  0  0  0  0  0
   30.1972  -25.4399   -5.6863 O   0  0  0  0  0  0  0  0  0  0  0  0
   28.9539  -24.2701   -5.3930 N   0  0  0  0  0  0  0  0  0  0  0  0
   28.0185  -23.9781   -5.4878 H   0  0  0  0  0  0  0  0  0  0  0  0
   29.6007  -23.7026   -4.9146 H   0  0  0  0  0  0  0  0  0  0  0  0
   31.2548  -30.8163   -6.6871 C   0  0  0  0  0  0  0  0  0  0  0  0
   32.1652  -30.4806   -6.9287 O   0  0  0  0  0  0  0  0  0  0  0  0
   32.7095  -30.9700   -7.5652 H   0  0  0  0  0  0  0  0  0  0  0  0
   30.2092  -31.2612   -2.9761 C   0  0  0  0  0  0  0  0  0  0  0  0
   29.5051  -31.9640   -2.8749 C   0  0  0  0  0  0  0  0  0  0  0  0
   28.5727  -31.9178   -3.2333 C   0  0  0  0  0  0  0  0  0  0  0  0
   28.1010  -32.7617   -2.9774 N   0  0  0  0  0  0  0  0  0  0  0  0
   28.7421  -33.3295   -2.4609 C   0  0  0  0  0  0  0  0  0  0  0  0
   29.6098  -32.8364   -2.3976 N   0  0  0  0  0  0  0  0  0  0  0  0
   30.4242  -33.1542   -1.9448 H   0  0  0  0  0  0  0  0  0  0  0  0
 95 96  1  0  0  0
 95 97  1  0  0  0
 95 98  1  0  0  0
 96 91  1  0  0  0
 96 99  1  0  0  0
 91 92  2  0  0  0
 91 93  1  0  0  0
 93 90  1  0  0  0
 93 94  1  0  0  0
 90103  1  0  0  0
 90 86  1  0  0  0
103104  1  0  0  0
104105  1  0  0  0
105106  2  0  0  0
105107  1  0  0  0
107108  1  0  0  0
107109  1  0  0  0
 86 87  2  0  0  0
 86 88  1  0  0  0
 88 85  1  0  0  0
 88 89  1  0  0  0
 85110  1  0  0  0
 85 81  1  0  0  0
110111  1  0  0  0
111112  1  0  0  0
112113  2  0  0  0
112114  1  0  0  0
114115  1  0  0  0
114116  1  0  0  0
 81 82  2  0  0  0
 81 83  1  0  0  0
 83 79  1  0  0  0
 83 84  1  0  0  0
 79 80  1  0  0  0
 79 75  1  0  0  0
 75 76  2  0  0  0
 75 77  1  0  0  0
 77 74  1  0  0  0
 77 78  1  0  0  0
 74117  1  0  0  0
 74 70  1  0  0  0
117118  1  0  0  0
118119  1  0  0  0
 70 71  2  0  0  0
 70 72  1  0  0  0
 72 69  1  0  0  0
 72 73  1  0  0  0
 69120  1  0  0  0
 69 65  1  0  0  0
120121  1  0  0  0
121125  1  0  0  0
121122  2  0  0  0
122123  1  0  0  0
123124  2  0  0  0
124125  1  0  0  0
125126  1  0  0  0
 65 66  2  0  0  0
 65 67  1  0  0  0
 67  1  1  0  0  0
 67 68  1  0  0  0
  1  2  1  0  0  0
  1 10  1  0  0  0
  2  8  2  0  0  0
  2  3  1  0  0  0
  3  4  2  0  0  0
  4  5  1  0  0  0
  5  6  1  0  0  0
  5  7  2  0  0  0
  6  9  1  0  0  0
  7  8  1  0  0  0
 10 11  2  0  0  0
 10 12  1  0  0  0
 12 14  1  0  0  0
 12 13  1  0  0  0
 14 58  1  0  0  0
 14 15  1  0  0  0
 58 59  1  0  0  0
 59 60  1  0  0  0
 60 61  1  0  0  0
 61 62  1  0  0  0
 62 63  1  0  0  0
 62 64  1  0  0  0
 15 16  2  0  0  0
 15 17  1  0  0  0
 17 19  1  0  0  0
 17 18  1  0  0  0
 19 51  1  0  0  0
 19 20  1  0  0  0
 51 52  1  0  0  0
 52 53  1  0  0  0
 53 54  2  0  0  0
 53 55  1  0  0  0
 55 56  1  0  0  0
 55 57  1  0  0  0
 20 21  2  0  0  0
 20 22  1  0  0  0
 22 24  1  0  0  0
 22 23  1  0  0  0
 24 44  1  0  0  0
 24 25  1  0  0  0
 44 45  1  0  0  0
 45 49  1  0  0  0
 45 46  2  0  0  0
 46 47  1  0  0  0
 47 48  2  0  0  0
 48 49  1  0  0  0
 49 50  1  0  0  0
 25 26  2  0  0  0
 25 27  1  0  0  0
 27 29  1  0  0  0
 27 28  1  0  0  0
 29 41  1  0  0  0
 29 30  1  0  0  0
 41 42  1  0  0  0
 42 43  1  0  0  0
 30 31  2  0  0  0
 30 32  1  0  0  0
 32 36  1  0  0  0
 32 33  1  0  0  0
 33 34  1  0  0  0
 34 35  1  0  0  0
 35 36  1  0  0  0
 36 37  1  0  0  0
 37 38  1  0  0  0
 37 39  2  0  0  0
 38 40  1  0  0  0
 99100  1  0  0  0
 99101  1  0  0  0
100102  1  0  0  0
M  END
> <minimizedAffinity>
-4.09714

$$$$



126129  0  0  0  0  0  0  0  0999 V2000
   32.1070  -28.2731   -6.6010 C   0  0  0  0  0  0  0  0  0  0  0  0
   32.9036  -28.2755   -5.9965 C   0  0  0  0  0  0  0  0  0  0  0  0
   33.3190  -29.1421   -5.7201 C   0  0  0  0  0  0  0  0  0  0  0  0
   34.1156  -29.1445   -5.1156 C   0  0  0  0  0  0  0  0  0  0  0  0
   34.4969  -28.2802   -4.7876 C   0  0  0  0  0  0  0  0  0  0  0  0
   35.2935  -28.2826   -4.1831 O   0  0  0  0  0  0  0  0  0  0  0  0
   34.0816  -27.4135   -5.0640 C   0  0  0  0  0  0  0  0  0  0  0  0
   33.2850  -27.4112   -5.6685 C   0  0  0  0  0  0  0  0  0  0  0  0
   35.6827  -29.0946   -3.9241 H   0  0  0  0  0  0  0  0  0  0  0  0
   31.1866  -28.3373   -6.2154 C   0  0  0  0  0  0  0  0  0  0  0  0
   30.9633  -27.8507   -5.3708 O   0  0  0  0  0  0  0  0  0  0  0  0
   30.4896  -28.8882   -6.6743 N   0  0  0  0  0  0  0  0  0  0  0  0
   30.7095  -29.3673   -7.5058 H   0  0  0  0  0  0  0  0  0  0  0  0
   29.5691  -28.9525   -6.2887 C   0  0  0  0  0  0  0  0  0  0  0  0
   28.8816  -28.2635   -6.5182 C   0  0  0  0  0  0  0  0  0  0  0  0
   28.6200  -28.1167   -7.4721 O   0  0  0  0  0  0  0  0  0  0  0  0
   28.4558  -27.7214   -5.7938 N   0  0  0  0  0  0  0  0  0  0  0  0
   28.7134  -27.8661   -4.8547 H   0  0  0  0  0  0  0  0  0  0  0  0
   27.7683  -27.0325   -6.0233 C   0  0  0  0  0  0  0  0  0  0  0  0
   26.8030  -27.2049   -5.8276 C   0  0  0  0  0  0  0  0  0  0  0  0
   26.5080  -27.3895   -4.8901 O   0  0  0  0  0  0  0  0  0  0  0  0
   26.1325  -27.1928   -6.5696 N   0  0  0  0  0  0  0  0  0  0  0  0
   26.4229  -27.0111   -7.4925 H   0  0  0  0  0  0  0  0  0  0  0  0
   25.1671  -27.3653   -6.3739 C   0  0  0  0  0  0  0  0  0  0  0  0
   24.5294  -26.5996   -6.2901 C   0  0  0  0  0  0  0  0  0  0  0  0
   24.4214  -25.9538   -7.0459 O   0  0  0  0  0  0  0  0  0  0  0  0
   23.9998  -26.4796   -5.4504 N   0  0  0  0  0  0  0  0  0  0  0  0
   24.1061  -27.1154   -4.7063 H   0  0  0  0  0  0  0  0  0  0  0  0
   23.3621  -25.7139   -5.3666 C   0  0  0  0  0  0  0  0  0  0  0  0
   22.3767  -25.8757   -5.4200 C   0  0  0  0  0  0  0  0  0  0  0  0
   21.8478  -25.4946   -6.1783 O   0  0  0  0  0  0  0  0  0  0  0  0
   21.9202  -26.4187   -4.7151 N   0  0  0  0  0  0  0  0  0  0  0  0
   22.3592  -26.8402   -3.9216 C   0  0  0  0  0  0  0  0  0  0  0  0
   21.6548  -27.3174   -3.3961 C   0  0  0  0  0  0  0  0  0  0  0  0
   20.7806  -27.1908   -3.8648 C   0  0  0  0  0  0  0  0  0  0  0  0
   20.9446  -26.6353   -4.6800 C   0  0  0  0  0  0  0  0  0  0  0  0
   20.2542  -26.3472   -5.3435 C   0  0  0  0  0  0  0  0  0  0  0  0
   20.0661  -26.9123   -6.1467 O   0  0  0  0  0  0  0  0  0  0  0  0
   19.7519  -25.4938   -5.2038 O   0  0  0  0  0  0  0  0  0  0  0  0
   20.5367  -27.7119   -6.2776 H   0  0  0  0  0  0  0  0  0  0  0  0
   23.7097  -24.7864   -5.2293 C   0  0  0  0  0  0  0  0  0  0  0  0
   24.0895  -24.5208   -4.3431 S   0  0  0  0  0  0  0  0  0  0  0  0
   24.1331  -25.4210   -3.3246 H   0  0  0  0  0  0  0  0  0  0  0  0
   24.8394  -28.3034   -6.2622 C   0  0  0  0  0  0  0  0  0  0  0  0
   24.7923  -28.9141   -7.0526 C   0  0  0  0  0  0  0  0  0  0  0  0
   25.3294  -29.7473   -7.1846 C   0  0  0  0  0  0  0  0  0  0  0  0
   25.0689  -30.1470   -8.0634 N   0  0  0  0  0  0  0  0  0  0  0  0
   24.3708  -29.5608   -8.4747 C   0  0  0  0  0  0  0  0  0  0  0  0
   24.1999  -28.7988   -7.8499 N   0  0  0  0  0  0  0  0  0  0  0  0
   23.5606  -28.0642   -7.9946 H   0  0  0  0  0  0  0  0  0  0  0  0
   28.0462  -26.1710   -6.4483 C   0  0  0  0  0  0  0  0  0  0  0  0
   28.3434  -25.4051   -5.8782 C   0  0  0  0  0  0  0  0  0  0  0  0
   29.0109  -24.7491   -6.2304 C   0  0  0  0  0  0  0  0  0  0  0  0
   28.7185  -24.0244   -6.8545 O   0  0  0  0  0  0  0  0  0  0  0  0
   29.9708  -24.8177   -5.9587 N   0  0  0  0  0  0  0  0  0  0  0  0
   30.2586  -25.5312   -5.3443 H   0  0  0  0  0  0  0  0  0  0  0  0
   30.6280  -24.1719   -6.3054 H   0  0  0  0  0  0  0  0  0  0  0  0
   29.3362  -29.7058   -5.6736 C   0  0  0  0  0  0  0  0  0  0  0  0
   29.2146  -30.6292   -6.0377 C   0  0  0  0  0  0  0  0  0  0  0  0
   28.8699  -31.3584   -5.4465 C   0  0  0  0  0  0  0  0  0  0  0  0
   28.7770  -32.2884   -5.8020 C   0  0  0  0  0  0  0  0  0  0  0  0
   28.2539  -32.9696   -5.2897 N   0  0  0  0  0  0  0  0  0  0  0  0
   27.8151  -32.7157   -4.4046 H   0  0  0  0  0  0  0  0  0  0  0  0
   28.1592  -33.9182   -5.6523 H   0  0  0  0  0  0  0  0  0  0  0  0
   32.0828  -27.3336   -8.0559 C   0  0  0  0  0  0  0  0  0  0  0  0
   31.8110  -26.5271   -7.5306 O   0  0  0  0  0  0  0  0  0  0  0  0
   32.2308  -28.2065   -7.5911 N   0  0  0  0  0  0  0  0  0  0  0  0
   32.4984  -29.0004   -8.1082 H   0  0  0  0  0  0  0  0  0  0  0  0
   32.2066  -27.2670   -9.0459 C   0  0  0  0  0  0  0  0  0  0  0  0
   30.7878  -27.3879  -10.0320 C   0  0  0  0  0  0  0  0  0  0  0  0
   30.7740  -28.3778   -9.8907 O   0  0  0  0  0  0  0  0  0  0  0  0
   31.5041  -26.8325   -9.6096 N   0  0  0  0  0  0  0  0  0  0  0  0
   31.5177  -25.8579   -9.7486 H   0  0  0  0  0  0  0  0  0  0  0  0
   30.0853  -26.9535  -10.5956 C   0  0  0  0  0  0  0  0  0  0  0  0
   28.7925  -25.8289  -10.3429 C   0  0  0  0  0  0  0  0  0  0  0  0
   29.2845  -25.1428  -10.8787 O   0  0  0  0  0  0  0  0  0  0  0  0
   29.1928  -26.7342  -10.2013 N   0  0  0  0  0  0  0  0  0  0  0  0
   28.7084  -27.4096   -9.6738 H   0  0  0  0  0  0  0  0  0  0  0  0
   27.9000  -25.6096   -9.9486 C   0  0  0  0  0  0  0  0  0  0  0  0
   27.1794  -26.3025   -9.9262 C   0  0  0  0  0  0  0  0  0  0  0  0
   26.9558  -24.1581   -9.9121 C   0  0  0  0  0  0  0  0  0  0  0  0
   26.3552  -24.5310  -10.6194 O   0  0  0  0  0  0  0  0  0  0  0  0
   27.7282  -24.6974   -9.5767 N   0  0  0  0  0  0  0  0  0  0  0  0
   28.3194  -24.3303   -8.8804 H   0  0  0  0  0  0  0  0  0  0  0  0
   26.7839  -23.2458   -9.5403 C   0  0  0  0  0  0  0  0  0  0  0  0
   27.8909  -21.9436   -9.8209 C   0  0  0  0  0  0  0  0  0  0  0  0
   27.4688  -21.7768  -10.7119 O   0  0  0  0  0  0  0  0  0  0  0  0
   27.5484  -22.6781   -9.2350 N   0  0  0  0  0  0  0  0  0  0  0  0
   27.9640  -22.8423   -8.3578 H   0  0  0  0  0  0  0  0  0  0  0  0
   28.6554  -21.3759   -9.5157 C   0  0  0  0  0  0  0  0  0  0  0  0
   30.2497  -22.0264   -9.3284 C   0  0  0  0  0  0  0  0  0  0  0  0
   30.4188  -21.8932  -10.3049 O   0  0  0  0  0  0  0  0  0  0  0  0
   29.3681  -21.7677   -8.9337 N   0  0  0  0  0  0  0  0  0  0  0  0
   29.2016  -21.8988   -7.9723 H   0  0  0  0  0  0  0  0  0  0  0  0
   31.2260  -21.9567   -7.8993 N   0  0  0  0  0  0  0  0  0  0  0  0
   30.9624  -22.4182   -8.7464 C   0  0  0  0  0  0  0  0  0  0  0  0
   31.9528  -22.3563   -7.3057 H   0  0  0  0  0  0  0  0  0  0  0  0
   30.7680  -21.0863   -7.6290 H   0  0  0  0  0  0  0  0  0  0  0  0
   31.4113  -23.2715   -9.0114 C   0  0  0  0  0  0  0  0  0  0  0  0
   30.9331  -24.1430   -8.9023 O   0  0  0  0  0  0  0  0  0  0  0  0
   32.3385  -23.2534   -9.3856 C   0  0  0  0  0  0  0  0  0  0  0  0
   30.0337  -24.1605   -8.5394 H   0  0  0  0  0  0  0  0  0  0  0  0
   28.7074  -20.4163   -9.7923 C   0  0  0  0  0  0  0  0  0  0  0  0
   28.4798  -19.6945   -9.1388 C   0  0  0  0  0  0  0  0  0  0  0  0
   28.6016  -18.7346   -9.3915 C   0  0  0  0  0  0  0  0  0  0  0  0
   27.8125  -18.1864   -9.6684 O   0  0  0  0  0  0  0  0  0  0  0  0
   29.5126  -18.3229   -9.3672 N   0  0  0  0  0  0  0  0  0  0  0  0
   30.2895  -18.8627   -9.0945 H   0  0  0  0  0  0  0  0  0  0  0  0
   29.6326  -17.3780   -9.6159 H   0  0  0  0  0  0  0  0  0  0  0  0
   25.8475  -22.9013   -9.4736 C   0  0  0  0  0  0  0  0  0  0  0  0
   25.3352  -23.0072   -8.6214 C   0  0  0  0  0  0  0  0  0  0  0  0
   24.3814  -22.7112   -8.5713 C   0  0  0  0  0  0  0  0  0  0  0  0
   23.9375  -22.6030   -7.6817 O   0  0  0  0  0  0  0  0  0  0  0  0
   23.8713  -22.5235   -9.4107 N   0  0  0  0  0  0  0  0  0  0  0  0
   24.3083  -22.6301  -10.2865 H   0  0  0  0  0  0  0  0  0  0  0  0
   22.9322  -22.2322   -9.3614 H   0  0  0  0  0  0  0  0  0  0  0  0
   30.2752  -26.7383  -11.5535 C   0  0  0  0  0  0  0  0  0  0  0  0
   30.4243  -27.4762  -12.2117 O   0  0  0  0  0  0  0  0  0  0  0  0
   30.6086  -27.2675  -13.1409 H   0  0  0  0  0  0  0  0  0  0  0  0
   33.0330  -27.6348   -9.4724 C   0  0  0  0  0  0  0  0  0  0  0  0
   33.7462  -27.0143   -9.7983 C   0  0  0  0  0  0  0  0  0  0  0  0
   33.9509  -26.8045  -10.7544 C   0  0  0  0  0  0  0  0  0  0  0  0
   34.7112  -26.1550  -10.7724 N   0  0  0  0  0  0  0  0  0  0  0  0
   34.9762  -25.9634   -9.8273 C   0  0  0  0  0  0  0  0  0  0  0  0
   34.3798  -26.4945   -9.2254 N   0  0  0  0  0  0  0  0  0  0  0  0
   34.4111  -26.5039   -8.2414 H   0  0  0  0  0  0  0  0  0  0  0  0
 95 96  1  0  0  0
 95 97  1  0  0  0
 95 98  1  0  0  0
 96 91  1  0  0  0
 96 99  1  0  0  0
 91 92  2  0  0  0
 91 93  1  0  0  0
 93 90  1  0  0  0
 93 94  1  0  0  0
 90103  1  0  0  0
 90 86  1  0  0  0
103104  1  0  0  0
104105  1  0  0  0
105106  2  0  0  0
105107  1  0  0  0
107108  1  0  0  0
107109  1  0  0  0
 86 87  2  0  0  0
 86 88  1  0  0  0
 88 85  1  0  0  0
 88 89  1  0  0  0
 85110  1  0  0  0
 85 81  1  0  0  0
110111  1  0  0  0
111112  1  0  0  0
112113  2  0  0  0
112114  1  0  0  0
114115  1  0  0  0
114116  1  0  0  0
 81 82  2  0  0  0
 81 83  1  0  0  0
 83 79  1  0  0  0
 83 84  1  0  0  0
 79 80  1  0  0  0
 79 75  1  0  0  0
 75 76  2  0  0  0
 75 77  1  0  0  0
 77 74  1  0  0  0
 77 78  1  0  0  0
 74117  1  0  0  0
 74 70  1  0  0  0
117118  1  0  0  0
118119  1  0  0  0
 70 71  2  0  0  0
 70 72  1  0  0  0
 72 69  1  0  0  0
 72 73  1  0  0  0
 69120  1  0  0  0
 69 65  1  0  0  0
120121  1  0  0  0
121125  1  0  0  0
121122  2  0  0  0
122123  1  0  0  0
123124  2  0  0  0
124125  1  0  0  0
125126  1  0  0  0
 65 66  2  0  0  0
 65 67  1  0  0  0
 67  1  1  0  0  0
 67 68  1  0  0  0
  1  2  1  0  0  0
  1 10  1  0  0  0
  2  8  2  0  0  0
  2  3  1  0  0  0
  3  4  2  0  0  0
  4  5  1  0  0  0
  5  6  1  0  0  0
  5  7  2  0  0  0
  6  9  1  0  0  0
  7  8  1  0  0  0
 10 11  2  0  0  0
 10 12  1  0  0  0
 12 14  1  0  0  0
 12 13  1  0  0  0
 14 58  1  0  0  0
 14 15  1  0  0  0
 58 59  1  0  0  0
 59 60  1  0  0  0
 60 61  1  0  0  0
 61 62  1  0  0  0
 62 63  1  0  0  0
 62 64  1  0  0  0
 15 16  2  0  0  0
 15 17  1  0  0  0
 17 19  1  0  0  0
 17 18  1  0  0  0
 19 51  1  0  0  0
 19 20  1  0  0  0
 51 52  1  0  0  0
 52 53  1  0  0  0
 53 54  2  0  0  0
 53 55  1  0  0  0
 55 56  1  0  0  0
 55 57  1  0  0  0
 20 21  2  0  0  0
 20 22  1  0  0  0
 22 24  1  0  0  0
 22 23  1  0  0  0
 24 44  1  0  0  0
 24 25  1  0  0  0
 44 45  1  0  0  0
 45 49  1  0  0  0
 45 46  2  0  0  0
 46 47  1  0  0  0
 47 48  2  0  0  0
 48 49  1  0  0  0
 49 50  1  0  0  0
 25 26  2  0  0  0
 25 27  1  0  0  0
 27 29  1  0  0  0
 27 28  1  0  0  0
 29 41  1  0  0  0
 29 30  1  0  0  0
 41 42  1  0  0  0
 42 43  1  0  0  0
 30 31  2  0  0  0
 30 32  1  0  0  0
 32 36  1  0  0  0
 32 33  1  0  0  0
 33 34  1  0  0  0
 34 35  1  0  0  0
 35 36  1  0  0  0
 36 37  1  0  0  0
 37 38  1  0  0  0
 37 39  2  0  0  0
 38 40  1  0  0  0
 99100  1  0  0  0
 99101  1  0  0  0
100102  1  0  0  0
M  END
> <minimizedAffinity>
-4.07767

$$$$



126129  0  0  0  0  0  0  0  0999 V2000
   23.7175  -25.9992   -5.0434 C   0  0  0  0  0  0  0  0  0  0  0  0
   22.8083  -25.8588   -4.6514 C   0  0  0  0  0  0  0  0  0  0  0  0
   22.7024  -25.3238   -3.8132 C   0  0  0  0  0  0  0  0  0  0  0  0
   21.7932  -25.1833   -3.4212 C   0  0  0  0  0  0  0  0  0  0  0  0
   20.9899  -25.5779   -3.8673 C   0  0  0  0  0  0  0  0  0  0  0  0
   20.0808  -25.4374   -3.4753 O   0  0  0  0  0  0  0  0  0  0  0  0
   21.0958  -26.1129   -4.7055 C   0  0  0  0  0  0  0  0  0  0  0  0
   22.0050  -26.2534   -5.0975 C   0  0  0  0  0  0  0  0  0  0  0  0
   19.9815  -24.9361   -2.6900 H   0  0  0  0  0  0  0  0  0  0  0  0
   24.1561  -25.2668   -5.5640 C   0  0  0  0  0  0  0  0  0  0  0  0
   24.4967  -24.4532   -5.0927 O   0  0  0  0  0  0  0  0  0  0  0  0
   24.2540  -25.3478   -6.5558 N   0  0  0  0  0  0  0  0  0  0  0  0
   23.9187  -26.1488   -7.0198 H   0  0  0  0  0  0  0  0  0  0  0  0
   24.6927  -24.6153   -7.0765 C   0  0  0  0  0  0  0  0  0  0  0  0
   25.5672  -24.7804   -7.5325 C   0  0  0  0  0  0  0  0  0  0  0  0
   25.7011  -25.6124   -8.0708 O   0  0  0  0  0  0  0  0  0  0  0  0
   26.3078  -24.1135   -7.4501 N   0  0  0  0  0  0  0  0  0  0  0  0
   26.1759  -23.2945   -6.9201 H   0  0  0  0  0  0  0  0  0  0  0  0
   27.1823  -24.2787   -7.9060 C   0  0  0  0  0  0  0  0  0  0  0  0
   27.3331  -23.9417   -8.8354 C   0  0  0  0  0  0  0  0  0  0  0  0
   27.7089  -24.5513   -9.5334 O   0  0  0  0  0  0  0  0  0  0  0  0
   27.1081  -22.9952   -9.0667 N   0  0  0  0  0  0  0  0  0  0  0  0
   26.7382  -22.3951   -8.3795 H   0  0  0  0  0  0  0  0  0  0  0  0
   27.2589  -22.6582   -9.9961 C   0  0  0  0  0  0  0  0  0  0  0  0
   28.0820  -22.1320  -10.2097 C   0  0  0  0  0  0  0  0  0  0  0  0
   28.4606  -22.1498  -11.1351 O   0  0  0  0  0  0  0  0  0  0  0  0
   28.5265  -21.5880   -9.4980 N   0  0  0  0  0  0  0  0  0  0  0  0
   28.1537  -21.5706   -8.5870 H   0  0  0  0  0  0  0  0  0  0  0  0
   29.3495  -21.0618   -9.7117 C   0  0  0  0  0  0  0  0  0  0  0  0
   30.2529  -21.4557   -9.5418 C   0  0  0  0  0  0  0  0  0  0  0  0
   30.7726  -21.8581  -10.2953 O   0  0  0  0  0  0  0  0  0  0  0  0
   30.6364  -21.4470   -8.6182 N   0  0  0  0  0  0  0  0  0  0  0  0
   30.1971  -21.0701   -7.8028 C   0  0  0  0  0  0  0  0  0  0  0  0
   30.8159  -21.2040   -7.0287 C   0  0  0  0  0  0  0  0  0  0  0  0
   31.6375  -21.6637   -7.3657 C   0  0  0  0  0  0  0  0  0  0  0  0
   31.5266  -21.8139   -8.3481 C   0  0  0  0  0  0  0  0  0  0  0  0
   32.1895  -22.2537   -8.9539 C   0  0  0  0  0  0  0  0  0  0  0  0
   32.8889  -21.7052   -9.4123 O   0  0  0  0  0  0  0  0  0  0  0  0
   32.1530  -23.2422   -9.1016 O   0  0  0  0  0  0  0  0  0  0  0  0
   32.9230  -20.7791   -9.2740 H   0  0  0  0  0  0  0  0  0  0  0  0
   29.2693  -20.1417  -10.0952 C   0  0  0  0  0  0  0  0  0  0  0  0
   28.7454  -19.4417   -9.6100 S   0  0  0  0  0  0  0  0  0  0  0  0
   28.1419  -19.7409   -8.4285 H   0  0  0  0  0  0  0  0  0  0  0  0
   26.5867  -22.8475  -10.7118 C   0  0  0  0  0  0  0  0  0  0  0  0
   25.7702  -22.2761  -10.7945 C   0  0  0  0  0  0  0  0  0  0  0  0
   24.8602  -22.5874  -11.0685 C   0  0  0  0  0  0  0  0  0  0  0  0
   24.2479  -21.7969  -11.0611 N   0  0  0  0  0  0  0  0  0  0  0  0
   24.7794  -20.9969  -10.7826 C   0  0  0  0  0  0  0  0  0  0  0  0
   25.7202  -21.2932  -10.6178 N   0  0  0  0  0  0  0  0  0  0  0  0
   26.4663  -20.7179  -10.3319 H   0  0  0  0  0  0  0  0  0  0  0  0
   27.9061  -24.7807   -7.4326 C   0  0  0  0  0  0  0  0  0  0  0  0
   28.5474  -24.2934   -6.8400 C   0  0  0  0  0  0  0  0  0  0  0  0
   29.2653  -24.7968   -6.3592 C   0  0  0  0  0  0  0  0  0  0  0  0
   30.1644  -24.9114   -6.7818 O   0  0  0  0  0  0  0  0  0  0  0  0
   29.0841  -25.1856   -5.4559 N   0  0  0  0  0  0  0  0  0  0  0  0
   28.1990  -25.0728   -5.0400 H   0  0  0  0  0  0  0  0  0  0  0  0
   29.7909  -25.6812   -4.9825 H   0  0  0  0  0  0  0  0  0  0  0  0
   24.2567  -23.7177   -7.1412 C   0  0  0  0  0  0  0  0  0  0  0  0
   23.5278  -23.5627   -7.8082 C   0  0  0  0  0  0  0  0  0  0  0  0
   23.0322  -22.6942   -7.8145 C   0  0  0  0  0  0  0  0  0  0  0  0
   22.2028  -22.5958   -8.3644 C   0  0  0  0  0  0  0  0  0  0  0  0
   21.9811  -21.7145   -8.7816 N   0  0  0  0  0  0  0  0  0  0  0  0
   22.6010  -20.9158   -8.6462 H   0  0  0  0  0  0  0  0  0  0  0  0
   21.1352  -21.6141   -9.3425 H   0  0  0  0  0  0  0  0  0  0  0  0
   24.8822  -26.9657   -4.2010 C   0  0  0  0  0  0  0  0  0  0  0  0
   25.1058  -26.1861   -3.6159 O   0  0  0  0  0  0  0  0  0  0  0  0
   24.1880  -26.8722   -4.9148 N   0  0  0  0  0  0  0  0  0  0  0  0
   23.9679  -27.6396   -5.4908 H   0  0  0  0  0  0  0  0  0  0  0  0
   25.3527  -27.8386   -4.0724 C   0  0  0  0  0  0  0  0  0  0  0  0
   26.6470  -27.9336   -5.2196 C   0  0  0  0  0  0  0  0  0  0  0  0
   27.0686  -27.1241   -4.8109 O   0  0  0  0  0  0  0  0  0  0  0  0
   25.7890  -28.2908   -4.8503 N   0  0  0  0  0  0  0  0  0  0  0  0
   25.3739  -29.0877   -5.2527 H   0  0  0  0  0  0  0  0  0  0  0  0
   27.0833  -28.3858   -5.9975 C   0  0  0  0  0  0  0  0  0  0  0  0
   28.5302  -29.3324   -5.8961 C   0  0  0  0  0  0  0  0  0  0  0  0
   27.9834  -30.1474   -5.7040 O   0  0  0  0  0  0  0  0  0  0  0  0
   28.0801  -28.4516   -6.0429 N   0  0  0  0  0  0  0  0  0  0  0  0
   28.6182  -27.6493   -6.2320 H   0  0  0  0  0  0  0  0  0  0  0  0
   29.5269  -29.3983   -5.9415 C   0  0  0  0  0  0  0  0  0  0  0  0
   29.9996  -30.1515   -5.4841 C   0  0  0  0  0  0  0  0  0  0  0  0
   30.4422  -28.9348   -7.3369 C   0  0  0  0  0  0  0  0  0  0  0  0
   30.3092  -29.8460   -7.7268 O   0  0  0  0  0  0  0  0  0  0  0  0
   30.0511  -28.7109   -6.4443 N   0  0  0  0  0  0  0  0  0  0  0  0
   30.1820  -27.8139   -6.0604 H   0  0  0  0  0  0  0  0  0  0  0  0
   30.9664  -28.2474   -7.8398 C   0  0  0  0  0  0  0  0  0  0  0  0
   32.6524  -28.1701   -7.4509 C   0  0  0  0  0  0  0  0  0  0  0  0
   32.8058  -29.0254   -7.9458 O   0  0  0  0  0  0  0  0  0  0  0  0
   31.7328  -27.7811   -7.3979 N   0  0  0  0  0  0  0  0  0  0  0  0
   31.5817  -26.9391   -6.9106 H   0  0  0  0  0  0  0  0  0  0  0  0
   33.4188  -27.7039   -7.0090 C   0  0  0  0  0  0  0  0  0  0  0  0
   34.5167  -26.7448   -7.9443 C   0  0  0  0  0  0  0  0  0  0  0  0
   35.0112  -27.5717   -8.2118 O   0  0  0  0  0  0  0  0  0  0  0  0
   33.7204  -26.8108   -7.3429 N   0  0  0  0  0  0  0  0  0  0  0  0
   33.2335  -25.9967   -7.0795 H   0  0  0  0  0  0  0  0  0  0  0  0
   34.2108  -25.3004   -8.8501 N   0  0  0  0  0  0  0  0  0  0  0  0
   34.8183  -25.8516   -8.2782 C   0  0  0  0  0  0  0  0  0  0  0  0
   34.5184  -24.3895   -9.1906 H   0  0  0  0  0  0  0  0  0  0  0  0
   33.2834  -25.6491   -9.0928 H   0  0  0  0  0  0  0  0  0  0  0  0
   35.7274  -25.5098   -8.0402 C   0  0  0  0  0  0  0  0  0  0  0  0
   35.9501  -25.3026   -7.0876 O   0  0  0  0  0  0  0  0  0  0  0  0
   36.4138  -25.3752   -8.7548 C   0  0  0  0  0  0  0  0  0  0  0  0
   35.2842  -25.4332   -6.3944 H   0  0  0  0  0  0  0  0  0  0  0  0
   33.8835  -28.1306   -6.2331 C   0  0  0  0  0  0  0  0  0  0  0  0
   33.6648  -27.8444   -5.3003 C   0  0  0  0  0  0  0  0  0  0  0  0
   34.2516  -28.1249   -4.5406 C   0  0  0  0  0  0  0  0  0  0  0  0
   35.0996  -27.6288   -4.3543 O   0  0  0  0  0  0  0  0  0  0  0  0
   33.9904  -28.9015   -3.9674 N   0  0  0  0  0  0  0  0  0  0  0  0
   33.1555  -29.3899   -4.1509 H   0  0  0  0  0  0  0  0  0  0  0  0
   34.5680  -29.1776   -3.2195 H   0  0  0  0  0  0  0  0  0  0  0  0
   30.7242  -28.0263   -8.7845 C   0  0  0  0  0  0  0  0  0  0  0  0
   30.1685  -27.2189   -8.9823 C   0  0  0  0  0  0  0  0  0  0  0  0
   30.2582  -26.7537   -9.8629 C   0  0  0  0  0  0  0  0  0  0  0  0
   30.1501  -27.2682  -10.7135 O   0  0  0  0  0  0  0  0  0  0  0  0
   30.4561  -25.7738   -9.8929 N   0  0  0  0  0  0  0  0  0  0  0  0
   30.5625  -25.2673   -9.0555 H   0  0  0  0  0  0  0  0  0  0  0  0
   30.5444  -25.3158  -10.7599 H   0  0  0  0  0  0  0  0  0  0  0  0
   26.5228  -28.7721   -6.7300 C   0  0  0  0  0  0  0  0  0  0  0  0
   26.3876  -28.2609   -7.5787 O   0  0  0  0  0  0  0  0  0  0  0  0
   25.8439  -28.6357   -8.2893 H   0  0  0  0  0  0  0  0  0  0  0  0
   25.3870  -28.2594   -3.1658 C   0  0  0  0  0  0  0  0  0  0  0  0
   24.7252  -28.9668   -2.9176 C   0  0  0  0  0  0  0  0  0  0  0  0
   23.9813  -28.8698   -2.2564 C   0  0  0  0  0  0  0  0  0  0  0  0
   23.4875  -29.7385   -2.2171 N   0  0  0  0  0  0  0  0  0  0  0  0
   23.9263  -30.3724   -2.8541 C   0  0  0  0  0  0  0  0  0  0  0  0
   24.6912  -29.8954   -3.2870 N   0  0  0  0  0  0  0  0  0  0  0  0
   25.3033  -30.2737   -3.9589 H   0  0  0  0  0  0  0  0  0  0  0  0
 95 96  1  0  0  0
 95 97  1  0  0  0
 95 98  1  0  0  0
 96 91  1  0  0  0
 96 99  1  0  0  0
 91 92  2  0  0  0
 91 93  1  0  0  0
 93 90  1  0  0  0
 93 94  1  0  0  0
 90103  1  0  0  0
 90 86  1  0  0  0
103104  1  0  0  0
104105  1  0  0  0
105106  2  0  0  0
105107  1  0  0  0
107108  1  0  0  0
107109  1  0  0  0
 86 87  2  0  0  0
 86 88  1  0  0  0
 88 85  1  0  0  0
 88 89  1  0  0  0
 85110  1  0  0  0
 85 81  1  0  0  0
110111  1  0  0  0
111112  1  0  0  0
112113  2  0  0  0
112114  1  0  0  0
114115  1  0  0  0
114116  1  0  0  0
 81 82  2  0  0  0
 81 83  1  0  0  0
 83 79  1  0  0  0
 83 84  1  0  0  0
 79 80  1  0  0  0
 79 75  1  0  0  0
 75 76  2  0  0  0
 75 77  1  0  0  0
 77 74  1  0  0  0
 77 78  1  0  0  0
 74117  1  0  0  0
 74 70  1  0  0  0
117118  1  0  0  0
118119  1  0  0  0
 70 71  2  0  0  0
 70 72  1  0  0  0
 72 69  1  0  0  0
 72 73  1  0  0  0
 69120  1  0  0  0
 69 65  1  0  0  0
120121  1  0  0  0
121125  1  0  0  0
121122  2  0  0  0
122123  1  0  0  0
123124  2  0  0  0
124125  1  0  0  0
125126  1  0  0  0
 65 66  2  0  0  0
 65 67  1  0  0  0
 67  1  1  0  0  0
 67 68  1  0  0  0
  1  2  1  0  0  0
  1 10  1  0  0  0
  2  8  2  0  0  0
  2  3  1  0  0  0
  3  4  2  0  0  0
  4  5  1  0  0  0
  5  6  1  0  0  0
  5  7  2  0  0  0
  6  9  1  0  0  0
  7  8  1  0  0  0
 10 11  2  0  0  0
 10 12  1  0  0  0
 12 14  1  0  0  0
 12 13  1  0  0  0
 14 58  1  0  0  0
 14 15  1  0  0  0
 58 59  1  0  0  0
 59 60  1  0  0  0
 60 61  1  0  0  0
 61 62  1  0  0  0
 62 63  1  0  0  0
 62 64  1  0  0  0
 15 16  2  0  0  0
 15 17  1  0  0  0
 17 19  1  0  0  0
 17 18  1  0  0  0
 19 51  1  0  0  0
 19 20  1  0  0  0
 51 52  1  0  0  0
 52 53  1  0  0  0
 53 54  2  0  0  0
 53 55  1  0  0  0
 55 56  1  0  0  0
 55 57  1  0  0  0
 20 21  2  0  0  0
 20 22  1  0  0  0
 22 24  1  0  0  0
 22 23  1  0  0  0
 24 44  1  0  0  0
 24 25  1  0  0  0
 44 45  1  0  0  0
 45 49  1  0  0  0
 45 46  2  0  0  0
 46 47  1  0  0  0
 47 48  2  0  0  0
 48 49  1  0  0  0
 49 50  1  0  0  0
 25 26  2  0  0  0
 25 27  1  0  0  0
 27 29  1  0  0  0
 27 28  1  0  0  0
 29 41  1  0  0  0
 29 30  1  0  0  0
 41 42  1  0  0  0
 42 43  1  0  0  0
 30 31  2  0  0  0
 30 32  1  0  0  0
 32 36  1  0  0  0
 32 33  1  0  0  0
 33 34  1  0  0  0
 34 35  1  0  0  0
 35 36  1  0  0  0
 36 37  1  0  0  0
 37 38  1  0  0  0
 37 39  2  0  0  0
 38 40  1  0  0  0
 99100  1  0  0  0
 99101  1  0  0  0
100102  1  0  0  0
M  END
> <minimizedAffinity>
-4.00398

$$$$



126129  0  0  0  0  0  0  0  0999 V2000
   23.8784  -25.8438   -5.4995 C   0  0  0  0  0  0  0  0  0  0  0  0
   23.2345  -25.6518   -4.7590 C   0  0  0  0  0  0  0  0  0  0  0  0
   22.2692  -25.8922   -4.8608 C   0  0  0  0  0  0  0  0  0  0  0  0
   21.6252  -25.7001   -4.1202 C   0  0  0  0  0  0  0  0  0  0  0  0
   21.9466  -25.2677   -3.2778 C   0  0  0  0  0  0  0  0  0  0  0  0
   21.3026  -25.0757   -2.5372 O   0  0  0  0  0  0  0  0  0  0  0  0
   22.9119  -25.0273   -3.1759 C   0  0  0  0  0  0  0  0  0  0  0  0
   23.5558  -25.2193   -3.9164 C   0  0  0  0  0  0  0  0  0  0  0  0
   20.3981  -25.3010   -2.6327 H   0  0  0  0  0  0  0  0  0  0  0  0
   24.6671  -26.4362   -5.3352 C   0  0  0  0  0  0  0  0  0  0  0  0
   25.3110  -26.2196   -4.6014 O   0  0  0  0  0  0  0  0  0  0  0  0
   24.8119  -27.2453   -5.9048 N   0  0  0  0  0  0  0  0  0  0  0  0
   24.1781  -27.4586   -6.6272 H   0  0  0  0  0  0  0  0  0  0  0  0
   25.6007  -27.8378   -5.7405 C   0  0  0  0  0  0  0  0  0  0  0  0
   25.4923  -28.6791   -5.2110 C   0  0  0  0  0  0  0  0  0  0  0  0
   25.0297  -29.4682   -5.6152 O   0  0  0  0  0  0  0  0  0  0  0  0
   25.8467  -28.7315   -4.2774 N   0  0  0  0  0  0  0  0  0  0  0  0
   26.3021  -27.9547   -3.8795 H   0  0  0  0  0  0  0  0  0  0  0  0
   25.7384  -29.5729   -3.7479 C   0  0  0  0  0  0  0  0  0  0  0  0
   26.5070  -30.2052   -3.6513 C   0  0  0  0  0  0  0  0  0  0  0  0
   27.3608  -29.8943   -3.2337 O   0  0  0  0  0  0  0  0  0  0  0  0
   26.4218  -31.1485   -3.9722 N   0  0  0  0  0  0  0  0  0  0  0  0
   25.5812  -31.4546   -4.3833 H   0  0  0  0  0  0  0  0  0  0  0  0
   27.1904  -31.7809   -3.8756 C   0  0  0  0  0  0  0  0  0  0  0  0
   27.8039  -31.9439   -4.6482 C   0  0  0  0  0  0  0  0  0  0  0  0
   27.4269  -32.1349   -5.5544 O   0  0  0  0  0  0  0  0  0  0  0  0
   28.7946  -31.9158   -4.5146 N   0  0  0  0  0  0  0  0  0  0  0  0
   29.1658  -31.7277   -3.6224 H   0  0  0  0  0  0  0  0  0  0  0  0
   29.4081  -32.0788   -5.2872 C   0  0  0  0  0  0  0  0  0  0  0  0
   29.9082  -31.3165   -5.6980 C   0  0  0  0  0  0  0  0  0  0  0  0
   29.7348  -31.0590   -6.6486 O   0  0  0  0  0  0  0  0  0  0  0  0
   30.5819  -30.8116   -5.1581 N   0  0  0  0  0  0  0  0  0  0  0  0
   30.8252  -30.9912   -4.2050 C   0  0  0  0  0  0  0  0  0  0  0  0
   31.5241  -30.3291   -3.9345 C   0  0  0  0  0  0  0  0  0  0  0  0
   31.7127  -29.7403   -4.7205 C   0  0  0  0  0  0  0  0  0  0  0  0
   31.1303  -30.0385   -5.4767 C   0  0  0  0  0  0  0  0  0  0  0  0
   31.1016  -29.6346   -6.3910 C   0  0  0  0  0  0  0  0  0  0  0  0
   31.6922  -29.9922   -7.1145 O   0  0  0  0  0  0  0  0  0  0  0  0
   30.4821  -28.8731   -6.5820 O   0  0  0  0  0  0  0  0  0  0  0  0
   32.2726  -30.7057   -6.9356 H   0  0  0  0  0  0  0  0  0  0  0  0
   29.5216  -33.0041   -5.6491 C   0  0  0  0  0  0  0  0  0  0  0  0
   30.1025  -33.6612   -5.1687 S   0  0  0  0  0  0  0  0  0  0  0  0
   30.7383  -33.2964   -4.0231 H   0  0  0  0  0  0  0  0  0  0  0  0
   27.3454  -32.2503   -3.0063 C   0  0  0  0  0  0  0  0  0  0  0  0
   26.9020  -33.1282   -2.8261 C   0  0  0  0  0  0  0  0  0  0  0  0
   27.3365  -33.9351   -2.4258 C   0  0  0  0  0  0  0  0  0  0  0  0
   26.6492  -34.6590   -2.3668 N   0  0  0  0  0  0  0  0  0  0  0  0
   25.7898  -34.2997   -2.7306 C   0  0  0  0  0  0  0  0  0  0  0  0
   25.9461  -33.3535   -3.0145 N   0  0  0  0  0  0  0  0  0  0  0  0
   25.2763  -32.7500   -3.4100 H   0  0  0  0  0  0  0  0  0  0  0  0
   24.8614  -29.7819   -3.3151 C   0  0  0  0  0  0  0  0  0  0  0  0
   24.5146  -29.1984   -2.5808 C   0  0  0  0  0  0  0  0  0  0  0  0
   23.5529  -29.2514   -2.3120 C   0  0  0  0  0  0  0  0  0  0  0  0
   23.0241  -28.4131   -2.1785 O   0  0  0  0  0  0  0  0  0  0  0  0
   23.1199  -30.1426   -2.1767 N   0  0  0  0  0  0  0  0  0  0  0  0
   23.6405  -30.9678   -2.3081 H   0  0  0  0  0  0  0  0  0  0  0  0
   22.1731  -30.1947   -1.9121 H   0  0  0  0  0  0  0  0  0  0  0  0
   26.4977  -27.5888   -6.1057 C   0  0  0  0  0  0  0  0  0  0  0  0
   26.6361  -27.5298   -7.0944 C   0  0  0  0  0  0  0  0  0  0  0  0
   27.5356  -27.2901   -7.4598 C   0  0  0  0  0  0  0  0  0  0  0  0
   27.6591  -27.1691   -8.4447 C   0  0  0  0  0  0  0  0  0  0  0  0
   26.8742  -27.2434   -9.0599 N   0  0  0  0  0  0  0  0  0  0  0  0
   25.9476  -27.4426   -8.6827 H   0  0  0  0  0  0  0  0  0  0  0  0
   27.0001  -27.1199  -10.0645 H   0  0  0  0  0  0  0  0  0  0  0  0
   24.1802  -24.5822   -6.6473 C   0  0  0  0  0  0  0  0  0  0  0  0
   24.7714  -24.1214   -5.9853 O   0  0  0  0  0  0  0  0  0  0  0  0
   23.7337  -25.4434   -6.4043 N   0  0  0  0  0  0  0  0  0  0  0  0
   23.1517  -25.8970   -7.0560 H   0  0  0  0  0  0  0  0  0  0  0  0
   24.0355  -24.1818   -7.5521 C   0  0  0  0  0  0  0  0  0  0  0  0
   22.4150  -24.1406   -8.1622 C   0  0  0  0  0  0  0  0  0  0  0  0
   22.2109  -23.3628   -7.5677 O   0  0  0  0  0  0  0  0  0  0  0  0
   23.3272  -24.5501   -8.1544 N   0  0  0  0  0  0  0  0  0  0  0  0
   23.5282  -25.3158   -8.7396 H   0  0  0  0  0  0  0  0  0  0  0  0
   21.7067  -24.5089   -8.7644 C   0  0  0  0  0  0  0  0  0  0  0  0
   21.2159  -26.1696   -8.7319 C   0  0  0  0  0  0  0  0  0  0  0  0
   20.5694  -25.9641   -7.9971 O   0  0  0  0  0  0  0  0  0  0  0  0
   21.7845  -25.4420   -9.1155 N   0  0  0  0  0  0  0  0  0  0  0  0
   22.4209  -25.6443   -9.8389 H   0  0  0  0  0  0  0  0  0  0  0  0
   21.2936  -27.1027   -9.0829 C   0  0  0  0  0  0  0  0  0  0  0  0
   21.3876  -27.2609  -10.0658 C   0  0  0  0  0  0  0  0  0  0  0  0
   22.1343  -28.2496   -8.0941 C   0  0  0  0  0  0  0  0  0  0  0  0
   23.0073  -27.8466   -8.3688 O   0  0  0  0  0  0  0  0  0  0  0  0
   21.2774  -27.8776   -8.4511 N   0  0  0  0  0  0  0  0  0  0  0  0
   20.4180  -28.2743   -8.1806 H   0  0  0  0  0  0  0  0  0  0  0  0
   22.1181  -29.0246   -7.4622 C   0  0  0  0  0  0  0  0  0  0  0  0
   22.6334  -30.5530   -8.0932 C   0  0  0  0  0  0  0  0  0  0  0  0
   21.7648  -30.6448   -8.5801 O   0  0  0  0  0  0  0  0  0  0  0  0
   22.8101  -29.7429   -7.5342 N   0  0  0  0  0  0  0  0  0  0  0  0
   23.6652  -29.6525   -7.0549 H   0  0  0  0  0  0  0  0  0  0  0  0
   23.3254  -31.2714   -8.1652 C   0  0  0  0  0  0  0  0  0  0  0  0
   23.4448  -32.4604   -6.9115 C   0  0  0  0  0  0  0  0  0  0  0  0
   22.6695  -32.9539   -7.3056 O   0  0  0  0  0  0  0  0  0  0  0  0
   23.7727  -31.6191   -7.3413 N   0  0  0  0  0  0  0  0  0  0  0  0
   24.5360  -31.1332   -6.9533 H   0  0  0  0  0  0  0  0  0  0  0  0
   24.8327  -33.1449   -6.1335 N   0  0  0  0  0  0  0  0  0  0  0  0
   23.8922  -32.8082   -6.0875 C   0  0  0  0  0  0  0  0  0  0  0  0
   25.2891  -33.4996   -5.2931 H   0  0  0  0  0  0  0  0  0  0  0  0
   25.3356  -33.1337   -7.0209 H   0  0  0  0  0  0  0  0  0  0  0  0
   23.3992  -32.8192   -5.2176 C   0  0  0  0  0  0  0  0  0  0  0  0
   23.4248  -32.0191   -4.6182 O   0  0  0  0  0  0  0  0  0  0  0  0
   22.8806  -33.6302   -4.9470 C   0  0  0  0  0  0  0  0  0  0  0  0
   23.9279  -31.2323   -4.8807 H   0  0  0  0  0  0  0  0  0  0  0  0
   23.5699  -31.6420   -9.0612 C   0  0  0  0  0  0  0  0  0  0  0  0
   24.4074  -31.3388   -9.5160 C   0  0  0  0  0  0  0  0  0  0  0  0
   24.7824  -31.8677  -10.2774 C   0  0  0  0  0  0  0  0  0  0  0  0
   25.1725  -32.7737  -10.1127 O   0  0  0  0  0  0  0  0  0  0  0  0
   24.7675  -31.4906  -11.2034 N   0  0  0  0  0  0  0  0  0  0  0  0
   24.3835  -30.5987  -11.3655 H   0  0  0  0  0  0  0  0  0  0  0  0
   25.1367  -32.0113  -11.9529 H   0  0  0  0  0  0  0  0  0  0  0  0
   21.4100  -29.0811   -6.7583 C   0  0  0  0  0  0  0  0  0  0  0  0
   21.6622  -29.0444   -5.7914 C   0  0  0  0  0  0  0  0  0  0  0  0
   21.0419  -29.4121   -5.0986 C   0  0  0  0  0  0  0  0  0  0  0  0
   21.2059  -30.3195   -4.7115 O   0  0  0  0  0  0  0  0  0  0  0  0
   20.2574  -28.8724   -4.7928 N   0  0  0  0  0  0  0  0  0  0  0  0
   20.0959  -27.9792   -5.1739 H   0  0  0  0  0  0  0  0  0  0  0  0
   19.6467  -29.2345   -4.1107 H   0  0  0  0  0  0  0  0  0  0  0  0
   20.9207  -23.9440   -9.0156 C   0  0  0  0  0  0  0  0  0  0  0  0
   20.8848  -23.5089   -9.9153 O   0  0  0  0  0  0  0  0  0  0  0  0
   20.1223  -22.9610  -10.1589 H   0  0  0  0  0  0  0  0  0  0  0  0
   24.5991  -23.4131   -7.8546 C   0  0  0  0  0  0  0  0  0  0  0  0
   25.3914  -23.5750   -8.4428 C   0  0  0  0  0  0  0  0  0  0  0  0
   25.3694  -23.9571   -9.3666 C   0  0  0  0  0  0  0  0  0  0  0  0
   26.3093  -24.0015   -9.7052 N   0  0  0  0  0  0  0  0  0  0  0  0
   26.9123  -23.6467   -8.9905 C   0  0  0  0  0  0  0  0  0  0  0  0
   26.3449  -23.3831   -8.2104 N   0  0  0  0  0  0  0  0  0  0  0  0
   26.6683  -23.0017   -7.3623 H   0  0  0  0  0  0  0  0  0  0  0  0
 95 96  1  0  0  0
 95 97  1  0  0  0
 95 98  1  0  0  0
 96 91  1  0  0  0
 96 99  1  0  0  0
 91 92  2  0  0  0
 91 93  1  0  0  0
 93 90  1  0  0  0
 93 94  1  0  0  0
 90103  1  0  0  0
 90 86  1  0  0  0
103104  1  0  0  0
104105  1  0  0  0
105106  2  0  0  0
105107  1  0  0  0
107108  1  0  0  0
107109  1  0  0  0
 86 87  2  0  0  0
 86 88  1  0  0  0
 88 85  1  0  0  0
 88 89  1  0  0  0
 85110  1  0  0  0
 85 81  1  0  0  0
110111  1  0  0  0
111112  1  0  0  0
112113  2  0  0  0
112114  1  0  0  0
114115  1  0  0  0
114116  1  0  0  0
 81 82  2  0  0  0
 81 83  1  0  0  0
 83 79  1  0  0  0
 83 84  1  0  0  0
 79 80  1  0  0  0
 79 75  1  0  0  0
 75 76  2  0  0  0
 75 77  1  0  0  0
 77 74  1  0  0  0
 77 78  1  0  0  0
 74117  1  0  0  0
 74 70  1  0  0  0
117118  1  0  0  0
118119  1  0  0  0
 70 71  2  0  0  0
 70 72  1  0  0  0
 72 69  1  0  0  0
 72 73  1  0  0  0
 69120  1  0  0  0
 69 65  1  0  0  0
120121  1  0  0  0
121125  1  0  0  0
121122  2  0  0  0
122123  1  0  0  0
123124  2  0  0  0
124125  1  0  0  0
125126  1  0  0  0
 65 66  2  0  0  0
 65 67  1  0  0  0
 67  1  1  0  0  0
 67 68  1  0  0  0
  1  2  1  0  0  0
  1 10  1  0  0  0
  2  8  2  0  0  0
  2  3  1  0  0  0
  3  4  2  0  0  0
  4  5  1  0  0  0
  5  6  1  0  0  0
  5  7  2  0  0  0
  6  9  1  0  0  0
  7  8  1  0  0  0
 10 11  2  0  0  0
 10 12  1  0  0  0
 12 14  1  0  0  0
 12 13  1  0  0  0
 14 58  1  0  0  0
 14 15  1  0  0  0
 58 59  1  0  0  0
 59 60  1  0  0  0
 60 61  1  0  0  0
 61 62  1  0  0  0
 62 63  1  0  0  0
 62 64  1  0  0  0
 15 16  2  0  0  0
 15 17  1  0  0  0
 17 19  1  0  0  0
 17 18  1  0  0  0
 19 51  1  0  0  0
 19 20  1  0  0  0
 51 52  1  0  0  0
 52 53  1  0  0  0
 53 54  2  0  0  0
 53 55  1  0  0  0
 55 56  1  0  0  0
 55 57  1  0  0  0
 20 21  2  0  0  0
 20 22  1  0  0  0
 22 24  1  0  0  0
 22 23  1  0  0  0
 24 44  1  0  0  0
 24 25  1  0  0  0
 44 45  1  0  0  0
 45 49  1  0  0  0
 45 46  2  0  0  0
 46 47  1  0  0  0
 47 48  2  0  0  0
 48 49  1  0  0  0
 49 50  1  0  0  0
 25 26  2  0  0  0
 25 27  1  0  0  0
 27 29  1  0  0  0
 27 28  1  0  0  0
 29 41  1  0  0  0
 29 30  1  0  0  0
 41 42  1  0  0  0
 42 43  1  0  0  0
 30 31  2  0  0  0
 30 32  1  0  0  0
 32 36  1  0  0  0
 32 33  1  0  0  0
 33 34  1  0  0  0
 34 35  1  0  0  0
 35 36  1  0  0  0
 36 37  1  0  0  0
 37 38  1  0  0  0
 37 39  2  0  0  0
 38 40  1  0  0  0
 99100  1  0  0  0
 99101  1  0  0  0
100102  1  0  0  0
M  END
> <minimizedAffinity>
-3.99441

$$$$



126129  0  0  0  0  0  0  0  0999 V2000
   23.6897  -24.4411   -7.1167 C   0  0  0  0  0  0  0  0  0  0  0  0
   22.9682  -24.0308   -7.6745 C   0  0  0  0  0  0  0  0  0  0  0  0
   22.8913  -23.0359   -7.7395 C   0  0  0  0  0  0  0  0  0  0  0  0
   22.1698  -22.6256   -8.2974 C   0  0  0  0  0  0  0  0  0  0  0  0
   21.5253  -23.2102   -8.7901 C   0  0  0  0  0  0  0  0  0  0  0  0
   20.8038  -22.7999   -9.3479 O   0  0  0  0  0  0  0  0  0  0  0  0
   21.6022  -24.2051   -8.7250 C   0  0  0  0  0  0  0  0  0  0  0  0
   22.3236  -24.6154   -8.1672 C   0  0  0  0  0  0  0  0  0  0  0  0
   20.7317  -21.8677   -9.4088 H   0  0  0  0  0  0  0  0  0  0  0  0
   24.6361  -24.1348   -7.2191 C   0  0  0  0  0  0  0  0  0  0  0  0
   24.9088  -23.2329   -6.8842 O   0  0  0  0  0  0  0  0  0  0  0  0
   25.3098  -24.7304   -7.6566 N   0  0  0  0  0  0  0  0  0  0  0  0
   25.0413  -25.6183   -7.9864 H   0  0  0  0  0  0  0  0  0  0  0  0
   26.2563  -24.4241   -7.7590 C   0  0  0  0  0  0  0  0  0  0  0  0
   26.5829  -24.0977   -8.6460 C   0  0  0  0  0  0  0  0  0  0  0  0
   26.8054  -24.7522   -9.3686 O   0  0  0  0  0  0  0  0  0  0  0  0
   26.6872  -23.1168   -8.8104 N   0  0  0  0  0  0  0  0  0  0  0  0
   26.4682  -22.4725   -8.0990 H   0  0  0  0  0  0  0  0  0  0  0  0
   27.0139  -22.7905   -9.6974 C   0  0  0  0  0  0  0  0  0  0  0  0
   27.9672  -22.5092   -9.8064 C   0  0  0  0  0  0  0  0  0  0  0  0
   28.4260  -22.6279  -10.6870 O   0  0  0  0  0  0  0  0  0  0  0  0
   28.4619  -22.1090   -9.0348 N   0  0  0  0  0  0  0  0  0  0  0  0
   28.0102  -21.9921   -8.1679 H   0  0  0  0  0  0  0  0  0  0  0  0
   29.4153  -21.8277   -9.1439 C   0  0  0  0  0  0  0  0  0  0  0  0
   30.1532  -22.4567   -8.8994 C   0  0  0  0  0  0  0  0  0  0  0  0
   30.2020  -22.8352   -7.9751 O   0  0  0  0  0  0  0  0  0  0  0  0
   30.8424  -22.7073   -9.5793 N   0  0  0  0  0  0  0  0  0  0  0  0
   30.7944  -22.3347  -10.4893 H   0  0  0  0  0  0  0  0  0  0  0  0
   31.5804  -23.3363   -9.3349 C   0  0  0  0  0  0  0  0  0  0  0  0
   31.4247  -24.3238   -9.3606 C   0  0  0  0  0  0  0  0  0  0  0  0
   31.4003  -24.8484   -8.5096 O   0  0  0  0  0  0  0  0  0  0  0  0
   31.2935  -24.7866  -10.2373 N   0  0  0  0  0  0  0  0  0  0  0  0
   31.3005  -24.3524  -11.1380 C   0  0  0  0  0  0  0  0  0  0  0  0
   31.1436  -25.0624  -11.8245 C   0  0  0  0  0  0  0  0  0  0  0  0
   31.0397  -25.9354  -11.3480 C   0  0  0  0  0  0  0  0  0  0  0  0
   31.1323  -25.7650  -10.3671 C   0  0  0  0  0  0  0  0  0  0  0  0
   31.0740  -26.4522   -9.6430 C   0  0  0  0  0  0  0  0  0  0  0  0
   31.8848  -26.9782   -9.3864 O   0  0  0  0  0  0  0  0  0  0  0  0
   30.2048  -26.6134   -9.1755 O   0  0  0  0  0  0  0  0  0  0  0  0
   32.6992  -26.8272   -9.8245 H   0  0  0  0  0  0  0  0  0  0  0  0
   32.4740  -22.9778   -9.0648 C   0  0  0  0  0  0  0  0  0  0  0  0
   32.9499  -22.3250   -9.6542 S   0  0  0  0  0  0  0  0  0  0  0  0
   32.3817  -21.9246  -10.8231 H   0  0  0  0  0  0  0  0  0  0  0  0
   29.6307  -20.9174   -9.4973 C   0  0  0  0  0  0  0  0  0  0  0  0
   29.4374  -20.1074   -8.9437 C   0  0  0  0  0  0  0  0  0  0  0  0
   28.7710  -19.3936   -9.1590 C   0  0  0  0  0  0  0  0  0  0  0  0
   28.7983  -18.7141   -8.4259 N   0  0  0  0  0  0  0  0  0  0  0  0
   29.4815  -19.0079   -7.7574 C   0  0  0  0  0  0  0  0  0  0  0  0
   29.8765  -19.8691   -8.0775 N   0  0  0  0  0  0  0  0  0  0  0  0
   30.5751  -20.3906   -7.6200 H   0  0  0  0  0  0  0  0  0  0  0  0
   26.3871  -22.7454  -10.4753 C   0  0  0  0  0  0  0  0  0  0  0  0
   25.6260  -22.0969  -10.4673 C   0  0  0  0  0  0  0  0  0  0  0  0
   24.8733  -22.2013  -11.1174 C   0  0  0  0  0  0  0  0  0  0  0  0
   24.2706  -22.9973  -11.0608 O   0  0  0  0  0  0  0  0  0  0  0  0
   24.7233  -21.5098  -11.8239 N   0  0  0  0  0  0  0  0  0  0  0  0
   25.3168  -20.7262  -11.8796 H   0  0  0  0  0  0  0  0  0  0  0  0
   23.9823  -21.6126  -12.4639 H   0  0  0  0  0  0  0  0  0  0  0  0
   26.8760  -24.4442   -6.9745 C   0  0  0  0  0  0  0  0  0  0  0  0
   27.4913  -25.2215   -6.8432 C   0  0  0  0  0  0  0  0  0  0  0  0
   28.2244  -25.1699   -6.1650 C   0  0  0  0  0  0  0  0  0  0  0  0
   28.9484  -25.8596   -6.1578 C   0  0  0  0  0  0  0  0  0  0  0  0
   29.9075  -25.5781   -6.1889 N   0  0  0  0  0  0  0  0  0  0  0  0
   30.1472  -24.5874   -6.2280 H   0  0  0  0  0  0  0  0  0  0  0  0
   30.6460  -26.2816   -6.1816 H   0  0  0  0  0  0  0  0  0  0  0  0
   23.4612  -24.9526   -5.4778 C   0  0  0  0  0  0  0  0  0  0  0  0
   23.6826  -24.0308   -5.1592 O   0  0  0  0  0  0  0  0  0  0  0  0
   23.4648  -25.1577   -6.4565 N   0  0  0  0  0  0  0  0  0  0  0  0
   23.2469  -26.0651   -6.7701 H   0  0  0  0  0  0  0  0  0  0  0  0
   23.2363  -25.6692   -4.8175 C   0  0  0  0  0  0  0  0  0  0  0  0
   21.5627  -26.1056   -4.7234 C   0  0  0  0  0  0  0  0  0  0  0  0
   21.3673  -25.2521   -4.2404 O   0  0  0  0  0  0  0  0  0  0  0  0
   22.4972  -26.3141   -5.0120 N   0  0  0  0  0  0  0  0  0  0  0  0
   22.6896  -27.1544   -5.4876 H   0  0  0  0  0  0  0  0  0  0  0  0
   20.8237  -26.7505   -4.9179 C   0  0  0  0  0  0  0  0  0  0  0  0
   20.3637  -27.2258   -6.5187 C   0  0  0  0  0  0  0  0  0  0  0  0
   19.7492  -26.4390   -6.5757 O   0  0  0  0  0  0  0  0  0  0  0  0
   20.9009  -27.3816   -5.6898 N   0  0  0  0  0  0  0  0  0  0  0  0
   21.5059  -28.1562   -5.6336 H   0  0  0  0  0  0  0  0  0  0  0  0
   20.4409  -27.8569   -7.2905 C   0  0  0  0  0  0  0  0  0  0  0  0
   19.7127  -28.5181   -7.4706 C   0  0  0  0  0  0  0  0  0  0  0  0
   21.7903  -28.6529   -8.0291 C   0  0  0  0  0  0  0  0  0  0  0  0
   21.5287  -29.5093   -7.5840 O   0  0  0  0  0  0  0  0  0  0  0  0
   21.2464  -27.8267   -7.8824 N   0  0  0  0  0  0  0  0  0  0  0  0
   21.5039  -26.9835   -8.3206 H   0  0  0  0  0  0  0  0  0  0  0  0
   22.5958  -28.6227   -8.6210 C   0  0  0  0  0  0  0  0  0  0  0  0
   24.1547  -28.5954   -7.8667 C   0  0  0  0  0  0  0  0  0  0  0  0
   24.0365  -27.6247   -7.6575 O   0  0  0  0  0  0  0  0  0  0  0  0
   23.4344  -29.0944   -8.3485 N   0  0  0  0  0  0  0  0  0  0  0  0
   23.5508  -30.0500   -8.5545 H   0  0  0  0  0  0  0  0  0  0  0  0
   24.9934  -29.0670   -7.5942 C   0  0  0  0  0  0  0  0  0  0  0  0
   26.4035  -28.9880   -8.5969 C   0  0  0  0  0  0  0  0  0  0  0  0
   26.0317  -29.7128   -9.1769 O   0  0  0  0  0  0  0  0  0  0  0  0
   25.8843  -28.6651   -7.8055 N   0  0  0  0  0  0  0  0  0  0  0  0
   26.2503  -27.9515   -7.2344 H   0  0  0  0  0  0  0  0  0  0  0  0
   27.3466  -27.7025   -9.2736 N   0  0  0  0  0  0  0  0  0  0  0  0
   27.2945  -28.5860   -8.8082 C   0  0  0  0  0  0  0  0  0  0  0  0
   28.2554  -27.2925   -9.4892 H   0  0  0  0  0  0  0  0  0  0  0  0
   26.4911  -27.2113   -9.5329 H   0  0  0  0  0  0  0  0  0  0  0  0
   28.1332  -29.0676   -8.5540 C   0  0  0  0  0  0  0  0  0  0  0  0
   28.5945  -28.8486   -7.6942 O   0  0  0  0  0  0  0  0  0  0  0  0
   28.5106  -29.7680   -9.1597 C   0  0  0  0  0  0  0  0  0  0  0  0
   28.2283  -28.1691   -7.1067 H   0  0  0  0  0  0  0  0  0  0  0  0
   24.9410  -29.9406   -7.1104 C   0  0  0  0  0  0  0  0  0  0  0  0
   25.1301  -29.9808   -6.1292 C   0  0  0  0  0  0  0  0  0  0  0  0
   24.9690  -30.8283   -5.6233 C   0  0  0  0  0  0  0  0  0  0  0  0
   25.2801  -31.7014   -5.9985 O   0  0  0  0  0  0  0  0  0  0  0  0
   24.4969  -30.8025   -4.7421 N   0  0  0  0  0  0  0  0  0  0  0  0
   24.1907  -29.9429   -4.3728 H   0  0  0  0  0  0  0  0  0  0  0  0
   24.3384  -31.6368   -4.2441 H   0  0  0  0  0  0  0  0  0  0  0  0
   22.5627  -28.1209   -9.4853 C   0  0  0  0  0  0  0  0  0  0  0  0
   22.5184  -28.6191  -10.3513 C   0  0  0  0  0  0  0  0  0  0  0  0
   22.5664  -28.1215  -11.2173 C   0  0  0  0  0  0  0  0  0  0  0  0
   21.8712  -27.4383  -11.4406 O   0  0  0  0  0  0  0  0  0  0  0  0
   23.3097  -28.3072  -11.8602 N   0  0  0  0  0  0  0  0  0  0  0  0
   23.9941  -28.9798  -11.6403 H   0  0  0  0  0  0  0  0  0  0  0  0
   23.3569  -27.8173  -12.7128 H   0  0  0  0  0  0  0  0  0  0  0  0
   20.0074  -26.7644   -4.3405 C   0  0  0  0  0  0  0  0  0  0  0  0
   19.9213  -27.4446   -3.6125 O   0  0  0  0  0  0  0  0  0  0  0  0
   19.1294  -27.4580   -3.0524 H   0  0  0  0  0  0  0  0  0  0  0  0
   23.7505  -25.7408   -3.9628 C   0  0  0  0  0  0  0  0  0  0  0  0
   24.3935  -26.4946   -3.8278 C   0  0  0  0  0  0  0  0  0  0  0  0
   24.2763  -27.2614   -3.1967 C   0  0  0  0  0  0  0  0  0  0  0  0
   25.0771  -27.8547   -3.2791 N   0  0  0  0  0  0  0  0  0  0  0  0
   25.6892  -27.4546   -3.9612 C   0  0  0  0  0  0  0  0  0  0  0  0
   25.2667  -26.6140   -4.3003 N   0  0  0  0  0  0  0  0  0  0  0  0
   25.6442  -26.0101   -4.9800 H   0  0  0  0  0  0  0  0  0  0  0  0
 95 96  1  0  0  0
 95 97  1  0  0  0
 95 98  1  0  0  0
 96 91  1  0  0  0
 96 99  1  0  0  0
 91 92  2  0  0  0
 91 93  1  0  0  0
 93 90  1  0  0  0
 93 94  1  0  0  0
 90103  1  0  0  0
 90 86  1  0  0  0
103104  1  0  0  0
104105  1  0  0  0
105106  2  0  0  0
105107  1  0  0  0
107108  1  0  0  0
107109  1  0  0  0
 86 87  2  0  0  0
 86 88  1  0  0  0
 88 85  1  0  0  0
 88 89  1  0  0  0
 85110  1  0  0  0
 85 81  1  0  0  0
110111  1  0  0  0
111112  1  0  0  0
112113  2  0  0  0
112114  1  0  0  0
114115  1  0  0  0
114116  1  0  0  0
 81 82  2  0  0  0
 81 83  1  0  0  0
 83 79  1  0  0  0
 83 84  1  0  0  0
 79 80  1  0  0  0
 79 75  1  0  0  0
 75 76  2  0  0  0
 75 77  1  0  0  0
 77 74  1  0  0  0
 77 78  1  0  0  0
 74117  1  0  0  0
 74 70  1  0  0  0
117118  1  0  0  0
118119  1  0  0  0
 70 71  2  0  0  0
 70 72  1  0  0  0
 72 69  1  0  0  0
 72 73  1  0  0  0
 69120  1  0  0  0
 69 65  1  0  0  0
120121  1  0  0  0
121125  1  0  0  0
121122  2  0  0  0
122123  1  0  0  0
123124  2  0  0  0
124125  1  0  0  0
125126  1  0  0  0
 65 66  2  0  0  0
 65 67  1  0  0  0
 67  1  1  0  0  0
 67 68  1  0  0  0
  1  2  1  0  0  0
  1 10  1  0  0  0
  2  8  2  0  0  0
  2  3  1  0  0  0
  3  4  2  0  0  0
  4  5  1  0  0  0
  5  6  1  0  0  0
  5  7  2  0  0  0
  6  9  1  0  0  0
  7  8  1  0  0  0
 10 11  2  0  0  0
 10 12  1  0  0  0
 12 14  1  0  0  0
 12 13  1  0  0  0
 14 58  1  0  0  0
 14 15  1  0  0  0
 58 59  1  0  0  0
 59 60  1  0  0  0
 60 61  1  0  0  0
 61 62  1  0  0  0
 62 63  1  0  0  0
 62 64  1  0  0  0
 15 16  2  0  0  0
 15 17  1  0  0  0
 17 19  1  0  0  0
 17 18  1  0  0  0
 19 51  1  0  0  0
 19 20  1  0  0  0
 51 52  1  0  0  0
 52 53  1  0  0  0
 53 54  2  0  0  0
 53 55  1  0  0  0
 55 56  1  0  0  0
 55 57  1  0  0  0
 20 21  2  0  0  0
 20 22  1  0  0  0
 22 24  1  0  0  0
 22 23  1  0  0  0
 24 44  1  0  0  0
 24 25  1  0  0  0
 44 45  1  0  0  0
 45 49  1  0  0  0
 45 46  2  0  0  0
 46 47  1  0  0  0
 47 48  2  0  0  0
 48 49  1  0  0  0
 49 50  1  0  0  0
 25 26  2  0  0  0
 25 27  1  0  0  0
 27 29  1  0  0  0
 27 28  1  0  0  0
 29 41  1  0  0  0
 29 30  1  0  0  0
 41 42  1  0  0  0
 42 43  1  0  0  0
 30 31  2  0  0  0
 30 32  1  0  0  0
 32 36  1  0  0  0
 32 33  1  0  0  0
 33 34  1  0  0  0
 34 35  1  0  0  0
 35 36  1  0  0  0
 36 37  1  0  0  0
 37 38  1  0  0  0
 37 39  2  0  0  0
 38 40  1  0  0  0
 99100  1  0  0  0
 99101  1  0  0  0
100102  1  0  0  0
M  END
> <minimizedAffinity>
-3.99354

$$$$



126129  0  0  0  0  0  0  0  0999 V2000
   25.0820  -27.8086   -5.1401 C   0  0  0  0  0  0  0  0  0  0  0  0
   24.7266  -28.1059   -4.2540 C   0  0  0  0  0  0  0  0  0  0  0  0
   25.1252  -28.9008   -3.7965 C   0  0  0  0  0  0  0  0  0  0  0  0
   24.7697  -29.1980   -2.9103 C   0  0  0  0  0  0  0  0  0  0  0  0
   24.0156  -28.7003   -2.4816 C   0  0  0  0  0  0  0  0  0  0  0  0
   23.6602  -28.9976   -1.5955 O   0  0  0  0  0  0  0  0  0  0  0  0
   23.6171  -27.9055   -2.9391 C   0  0  0  0  0  0  0  0  0  0  0  0
   23.9725  -27.6082   -3.8252 C   0  0  0  0  0  0  0  0  0  0  0  0
   24.0337  -29.7424   -1.1668 H   0  0  0  0  0  0  0  0  0  0  0  0
   25.6391  -26.9806   -5.2031 C   0  0  0  0  0  0  0  0  0  0  0  0
   25.5540  -26.2666   -4.5081 O   0  0  0  0  0  0  0  0  0  0  0  0
   26.2812  -26.8665   -5.9611 N   0  0  0  0  0  0  0  0  0  0  0  0
   26.3650  -27.5694   -6.6454 H   0  0  0  0  0  0  0  0  0  0  0  0
   26.8383  -26.0384   -6.0242 C   0  0  0  0  0  0  0  0  0  0  0  0
   26.4791  -25.2281   -6.4872 C   0  0  0  0  0  0  0  0  0  0  0  0
   26.6817  -24.3167   -6.1293 O   0  0  0  0  0  0  0  0  0  0  0  0
   25.9173  -25.3293   -7.3083 N   0  0  0  0  0  0  0  0  0  0  0  0
   25.7179  -26.2267   -7.6607 H   0  0  0  0  0  0  0  0  0  0  0  0
   25.5581  -24.5191   -7.7713 C   0  0  0  0  0  0  0  0  0  0  0  0
   26.0124  -24.1687   -8.5904 C   0  0  0  0  0  0  0  0  0  0  0  0
   26.0037  -23.1881   -8.7862 O   0  0  0  0  0  0  0  0  0  0  0  0
   26.4754  -24.7990   -9.2137 N   0  0  0  0  0  0  0  0  0  0  0  0
   26.4840  -25.7644   -9.0209 H   0  0  0  0  0  0  0  0  0  0  0  0
   26.9297  -24.4486  -10.0327 C   0  0  0  0  0  0  0  0  0  0  0  0
   27.9262  -24.3685  -10.0562 C   0  0  0  0  0  0  0  0  0  0  0  0
   28.4966  -25.1687   -9.8710 O   0  0  0  0  0  0  0  0  0  0  0  0
   28.3523  -23.4882  -10.2648 N   0  0  0  0  0  0  0  0  0  0  0  0
   27.7907  -22.7005  -10.4471 H   0  0  0  0  0  0  0  0  0  0  0  0
   29.3488  -23.4082  -10.2883 C   0  0  0  0  0  0  0  0  0  0  0  0
   29.8360  -23.0010   -9.5157 C   0  0  0  0  0  0  0  0  0  0  0  0
   30.4430  -23.5639   -8.9547 O   0  0  0  0  0  0  0  0  0  0  0  0
   29.7163  -22.0310   -9.3042 N   0  0  0  0  0  0  0  0  0  0  0  0
   29.1349  -21.3881   -9.8029 C   0  0  0  0  0  0  0  0  0  0  0  0
   29.2163  -20.4934   -9.3637 C   0  0  0  0  0  0  0  0  0  0  0  0
   29.8480  -20.5833   -8.5938 C   0  0  0  0  0  0  0  0  0  0  0  0
   30.1570  -21.5336   -8.5570 C   0  0  0  0  0  0  0  0  0  0  0  0
   30.7948  -21.9188   -7.8901 C   0  0  0  0  0  0  0  0  0  0  0  0
   30.4541  -22.2731   -7.0192 O   0  0  0  0  0  0  0  0  0  0  0  0
   31.7733  -21.9498   -8.0941 O   0  0  0  0  0  0  0  0  0  0  0  0
   29.5373  -22.2441   -6.8282 H   0  0  0  0  0  0  0  0  0  0  0  0
   29.8582  -23.7353  -11.0843 C   0  0  0  0  0  0  0  0  0  0  0  0
   29.8391  -23.2153  -11.9383 S   0  0  0  0  0  0  0  0  0  0  0  0
   29.1205  -22.0634  -12.0172 H   0  0  0  0  0  0  0  0  0  0  0  0
   26.3875  -24.1783  -10.8283 C   0  0  0  0  0  0  0  0  0  0  0  0
   26.1316  -24.8598  -11.5139 C   0  0  0  0  0  0  0  0  0  0  0  0
   26.1768  -24.7414  -12.5059 C   0  0  0  0  0  0  0  0  0  0  0  0
   25.8587  -25.5877  -12.9329 N   0  0  0  0  0  0  0  0  0  0  0  0
   25.6168  -26.2293  -12.2050 C   0  0  0  0  0  0  0  0  0  0  0  0
   25.7855  -25.7793  -11.3279 N   0  0  0  0  0  0  0  0  0  0  0  0
   25.6369  -26.1727  -10.4378 H   0  0  0  0  0  0  0  0  0  0  0  0
   24.7446  -24.0592   -7.4153 C   0  0  0  0  0  0  0  0  0  0  0  0
   23.8345  -24.4044   -7.6446 C   0  0  0  0  0  0  0  0  0  0  0  0
   23.0329  -24.0678   -7.1504 C   0  0  0  0  0  0  0  0  0  0  0  0
   22.2808  -23.6387   -7.6508 O   0  0  0  0  0  0  0  0  0  0  0  0
   22.9835  -24.1602   -6.1560 N   0  0  0  0  0  0  0  0  0  0  0  0
   23.7239  -24.5825   -5.6634 H   0  0  0  0  0  0  0  0  0  0  0  0
   22.1943  -23.8288   -5.6695 H   0  0  0  0  0  0  0  0  0  0  0  0
   27.7547  -26.0206   -5.6242 C   0  0  0  0  0  0  0  0  0  0  0  0
   28.5561  -26.1704   -6.2033 C   0  0  0  0  0  0  0  0  0  0  0  0
   29.4740  -26.1185   -5.8099 C   0  0  0  0  0  0  0  0  0  0  0  0
   30.1992  -25.6305   -6.2956 C   0  0  0  0  0  0  0  0  0  0  0  0
   30.7990  -26.1241   -6.9254 N   0  0  0  0  0  0  0  0  0  0  0  0
   30.6711  -27.1253   -7.0724 H   0  0  0  0  0  0  0  0  0  0  0  0
   31.5388  -25.6263   -7.4207 H   0  0  0  0  0  0  0  0  0  0  0  0
   24.1085  -28.0849   -6.5458 C   0  0  0  0  0  0  0  0  0  0  0  0
   23.5381  -27.2995   -6.3052 O   0  0  0  0  0  0  0  0  0  0  0  0
   24.8804  -28.3395   -5.9633 N   0  0  0  0  0  0  0  0  0  0  0  0
   25.4419  -29.1126   -6.2002 H   0  0  0  0  0  0  0  0  0  0  0  0
   23.9069  -28.6157   -7.3690 C   0  0  0  0  0  0  0  0  0  0  0  0
   25.0925  -28.5728   -8.6308 C   0  0  0  0  0  0  0  0  0  0  0  0
   24.7935  -27.6518   -8.8805 O   0  0  0  0  0  0  0  0  0  0  0  0
   24.6492  -29.0548   -7.8751 N   0  0  0  0  0  0  0  0  0  0  0  0
   24.9435  -29.9615   -7.6293 H   0  0  0  0  0  0  0  0  0  0  0  0
   25.8348  -29.0119   -9.1370 C   0  0  0  0  0  0  0  0  0  0  0  0
   27.5227  -28.6388   -9.2460 C   0  0  0  0  0  0  0  0  0  0  0  0
   27.3693  -28.2041  -10.1334 O   0  0  0  0  0  0  0  0  0  0  0  0
   26.7555  -29.0427   -8.7478 N   0  0  0  0  0  0  0  0  0  0  0  0
   26.9065  -29.4706   -7.8742 H   0  0  0  0  0  0  0  0  0  0  0  0
   28.4434  -28.6696   -8.8569 C   0  0  0  0  0  0  0  0  0  0  0  0
   29.2273  -28.3754   -9.4035 C   0  0  0  0  0  0  0  0  0  0  0  0
   29.3583  -29.5844   -7.7054 C   0  0  0  0  0  0  0  0  0  0  0  0
   29.9998  -29.8491   -8.4254 O   0  0  0  0  0  0  0  0  0  0  0  0
   28.5800  -28.9947   -7.9211 N   0  0  0  0  0  0  0  0  0  0  0  0
   27.9485  -28.7341   -7.2123 H   0  0  0  0  0  0  0  0  0  0  0  0
   29.4950  -29.9096   -6.7696 C   0  0  0  0  0  0  0  0  0  0  0  0
   28.5802  -31.2601   -6.1872 C   0  0  0  0  0  0  0  0  0  0  0  0
   29.2106  -31.8854   -6.6473 O   0  0  0  0  0  0  0  0  0  0  0  0
   28.7224  -30.2722   -6.2484 N   0  0  0  0  0  0  0  0  0  0  0  0
   28.1019  -29.6566   -5.7955 H   0  0  0  0  0  0  0  0  0  0  0  0
   27.8076  -31.6227   -5.6661 C   0  0  0  0  0  0  0  0  0  0  0  0
   27.9335  -31.7750   -3.9453 C   0  0  0  0  0  0  0  0  0  0  0  0
   27.7322  -30.8007   -3.8444 O   0  0  0  0  0  0  0  0  0  0  0  0
   27.9712  -32.1860   -4.8562 N   0  0  0  0  0  0  0  0  0  0  0  0
   28.1694  -33.1453   -4.9556 H   0  0  0  0  0  0  0  0  0  0  0  0
   27.3245  -32.7043   -2.6165 N   0  0  0  0  0  0  0  0  0  0  0  0
   28.0971  -32.3383   -3.1354 C   0  0  0  0  0  0  0  0  0  0  0  0
   27.4913  -33.2789   -1.7905 H   0  0  0  0  0  0  0  0  0  0  0  0
   26.3696  -32.5030   -2.9135 H   0  0  0  0  0  0  0  0  0  0  0  0
   29.0332  -32.5357   -2.8443 C   0  0  0  0  0  0  0  0  0  0  0  0
   29.6697  -31.7856   -2.6650 O   0  0  0  0  0  0  0  0  0  0  0  0
   29.3328  -33.4832   -2.7327 C   0  0  0  0  0  0  0  0  0  0  0  0
   29.3790  -30.8665   -2.7733 H   0  0  0  0  0  0  0  0  0  0  0  0
   26.8715  -31.4221   -5.9547 C   0  0  0  0  0  0  0  0  0  0  0  0
   26.3805  -32.0658   -6.5418 C   0  0  0  0  0  0  0  0  0  0  0  0
   25.3917  -31.9780   -6.6627 C   0  0  0  0  0  0  0  0  0  0  0  0
   24.8354  -31.5592   -5.9451 O   0  0  0  0  0  0  0  0  0  0  0  0
   24.9593  -32.3091   -7.5014 N   0  0  0  0  0  0  0  0  0  0  0  0
   25.5070  -32.7214   -8.2079 H   0  0  0  0  0  0  0  0  0  0  0  0
   23.9859  -32.2227   -7.6205 H   0  0  0  0  0  0  0  0  0  0  0  0
   30.4042  -29.8720   -6.3551 C   0  0  0  0  0  0  0  0  0  0  0  0
   30.5532  -29.3359   -5.5242 C   0  0  0  0  0  0  0  0  0  0  0  0
   31.4631  -29.2958   -5.1114 C   0  0  0  0  0  0  0  0  0  0  0  0
   32.1031  -28.5762   -5.3809 O   0  0  0  0  0  0  0  0  0  0  0  0
   31.7331  -29.9753   -4.4292 N   0  0  0  0  0  0  0  0  0  0  0  0
   31.1031  -30.6838   -4.1639 H   0  0  0  0  0  0  0  0  0  0  0  0
   32.6290  -29.9358   -4.0229 H   0  0  0  0  0  0  0  0  0  0  0  0
   25.6565  -29.4201  -10.0322 C   0  0  0  0  0  0  0  0  0  0  0  0
   25.3544  -30.3712  -10.0969 O   0  0  0  0  0  0  0  0  0  0  0  0
   25.1814  -30.7671  -10.9654 H   0  0  0  0  0  0  0  0  0  0  0  0
   22.9628  -28.7075   -7.6860 C   0  0  0  0  0  0  0  0  0  0  0  0
   22.4813  -29.5771   -7.5777 C   0  0  0  0  0  0  0  0  0  0  0  0
   22.2648  -30.2242   -8.3087 C   0  0  0  0  0  0  0  0  0  0  0  0
   21.7814  -30.9995   -7.9022 N   0  0  0  0  0  0  0  0  0  0  0  0
   21.6991  -30.8315   -6.9198 C   0  0  0  0  0  0  0  0  0  0  0  0
   22.1317  -29.9525   -6.7193 N   0  0  0  0  0  0  0  0  0  0  0  0
   22.2012  -29.5307   -5.8324 H   0  0  0  0  0  0  0  0  0  0  0  0
 95 96  1  0  0  0
 95 97  1  0  0  0
 95 98  1  0  0  0
 96 91  1  0  0  0
 96 99  1  0  0  0
 91 92  2  0  0  0
 91 93  1  0  0  0
 93 90  1  0  0  0
 93 94  1  0  0  0
 90103  1  0  0  0
 90 86  1  0  0  0
103104  1  0  0  0
104105  1  0  0  0
105106  2  0  0  0
105107  1  0  0  0
107108  1  0  0  0
107109  1  0  0  0
 86 87  2  0  0  0
 86 88  1  0  0  0
 88 85  1  0  0  0
 88 89  1  0  0  0
 85110  1  0  0  0
 85 81  1  0  0  0
110111  1  0  0  0
111112  1  0  0  0
112113  2  0  0  0
112114  1  0  0  0
114115  1  0  0  0
114116  1  0  0  0
 81 82  2  0  0  0
 81 83  1  0  0  0
 83 79  1  0  0  0
 83 84  1  0  0  0
 79 80  1  0  0  0
 79 75  1  0  0  0
 75 76  2  0  0  0
 75 77  1  0  0  0
 77 74  1  0  0  0
 77 78  1  0  0  0
 74117  1  0  0  0
 74 70  1  0  0  0
117118  1  0  0  0
118119  1  0  0  0
 70 71  2  0  0  0
 70 72  1  0  0  0
 72 69  1  0  0  0
 72 73  1  0  0  0
 69120  1  0  0  0
 69 65  1  0  0  0
120121  1  0  0  0
121125  1  0  0  0
121122  2  0  0  0
122123  1  0  0  0
123124  2  0  0  0
124125  1  0  0  0
125126  1  0  0  0
 65 66  2  0  0  0
 65 67  1  0  0  0
 67  1  1  0  0  0
 67 68  1  0  0  0
  1  2  1  0  0  0
  1 10  1  0  0  0
  2  8  2  0  0  0
  2  3  1  0  0  0
  3  4  2  0  0  0
  4  5  1  0  0  0
  5  6  1  0  0  0
  5  7  2  0  0  0
  6  9  1  0  0  0
  7  8  1  0  0  0
 10 11  2  0  0  0
 10 12  1  0  0  0
 12 14  1  0  0  0
 12 13  1  0  0  0
 14 58  1  0  0  0
 14 15  1  0  0  0
 58 59  1  0  0  0
 59 60  1  0  0  0
 60 61  1  0  0  0
 61 62  1  0  0  0
 62 63  1  0  0  0
 62 64  1  0  0  0
 15 16  2  0  0  0
 15 17  1  0  0  0
 17 19  1  0  0  0
 17 18  1  0  0  0
 19 51  1  0  0  0
 19 20  1  0  0  0
 51 52  1  0  0  0
 52 53  1  0  0  0
 53 54  2  0  0  0
 53 55  1  0  0  0
 55 56  1  0  0  0
 55 57  1  0  0  0
 20 21  2  0  0  0
 20 22  1  0  0  0
 22 24  1  0  0  0
 22 23  1  0  0  0
 24 44  1  0  0  0
 24 25  1  0  0  0
 44 45  1  0  0  0
 45 49  1  0  0  0
 45 46  2  0  0  0
 46 47  1  0  0  0
 47 48  2  0  0  0
 48 49  1  0  0  0
 49 50  1  0  0  0
 25 26  2  0  0  0
 25 27  1  0  0  0
 27 29  1  0  0  0
 27 28  1  0  0  0
 29 41  1  0  0  0
 29 30  1  0  0  0
 41 42  1  0  0  0
 42 43  1  0  0  0
 30 31  2  0  0  0
 30 32  1  0  0  0
 32 36  1  0  0  0
 32 33  1  0  0  0
 33 34  1  0  0  0
 34 35  1  0  0  0
 35 36  1  0  0  0
 36 37  1  0  0  0
 37 38  1  0  0  0
 37 39  2  0  0  0
 38 40  1  0  0  0
 99100  1  0  0  0
 99101  1  0  0  0
100102  1  0  0  0
M  END
> <minimizedAffinity>
-3.98575

$$$$
