


126129  0  0  0  0  0  0  0  0999 V2000
  -12.6668   -1.9123   11.4656 C   0  0  0  0  0  0  0  0  0  0  0  0
  -12.6494   -2.6027   10.7423 C   0  0  0  0  0  0  0  0  0  0  0  0
  -13.3307   -2.5776   10.0107 C   0  0  0  0  0  0  0  0  0  0  0  0
  -13.3133   -3.2680    9.2874 C   0  0  0  0  0  0  0  0  0  0  0  0
  -12.6146   -3.9834    9.2958 C   0  0  0  0  0  0  0  0  0  0  0  0
  -12.5973   -4.6738    8.5725 O   0  0  0  0  0  0  0  0  0  0  0  0
  -11.9334   -4.0085   10.0274 C   0  0  0  0  0  0  0  0  0  0  0  0
  -11.9507   -3.3181   10.7506 C   0  0  0  0  0  0  0  0  0  0  0  0
  -13.2356   -4.6503    7.8870 H   0  0  0  0  0  0  0  0  0  0  0  0
  -13.4146   -1.9024   12.1294 C   0  0  0  0  0  0  0  0  0  0  0  0
  -14.3321   -1.6245   11.8449 O   0  0  0  0  0  0  0  0  0  0  0  0
  -13.2449   -2.1703   13.0777 N   0  0  0  0  0  0  0  0  0  0  0  0
  -12.3416   -2.4439   13.3579 H   0  0  0  0  0  0  0  0  0  0  0  0
  -13.9927   -2.1604   13.7416 C   0  0  0  0  0  0  0  0  0  0  0  0
  -14.5452   -2.9815   13.8848 C   0  0  0  0  0  0  0  0  0  0  0  0
  -15.5428   -2.9156   13.9050 O   0  0  0  0  0  0  0  0  0  0  0  0
  -14.1000   -3.8685   14.0077 N   0  0  0  0  0  0  0  0  0  0  0  0
  -13.1179   -3.9333   13.9878 H   0  0  0  0  0  0  0  0  0  0  0  0
  -14.6525   -4.6896   14.1509 C   0  0  0  0  0  0  0  0  0  0  0  0
  -14.8316   -5.0162   15.0789 C   0  0  0  0  0  0  0  0  0  0  0  0
  -14.0790   -5.1062   15.7312 O   0  0  0  0  0  0  0  0  0  0  0  0
  -15.7633   -5.2528   15.3547 N   0  0  0  0  0  0  0  0  0  0  0  0
  -16.5042   -5.1642   14.7125 H   0  0  0  0  0  0  0  0  0  0  0  0
  -15.9423   -5.5794   16.2827 C   0  0  0  0  0  0  0  0  0  0  0  0
  -15.8661   -6.5540   16.4932 C   0  0  0  0  0  0  0  0  0  0  0  0
  -15.4275   -6.8494   17.3419 O   0  0  0  0  0  0  0  0  0  0  0  0
  -16.2284   -7.2332   15.8549 N   0  0  0  0  0  0  0  0  0  0  0  0
  -16.6602   -6.9424   15.0194 H   0  0  0  0  0  0  0  0  0  0  0  0
  -16.1522   -8.2078   16.0654 C   0  0  0  0  0  0  0  0  0  0  0  0
  -15.9843   -8.8662   15.3316 C   0  0  0  0  0  0  0  0  0  0  0  0
  -16.7539   -9.3063   14.8691 O   0  0  0  0  0  0  0  0  0  0  0  0
  -15.0468   -9.0844   15.0605 N   0  0  0  0  0  0  0  0  0  0  0  0
  -14.2147   -8.6995   15.4599 C   0  0  0  0  0  0  0  0  0  0  0  0
  -13.4305   -9.1030   14.9885 C   0  0  0  0  0  0  0  0  0  0  0  0
  -13.7779   -9.7372   14.2978 C   0  0  0  0  0  0  0  0  0  0  0  0
  -14.7768   -9.7257   14.3423 C   0  0  0  0  0  0  0  0  0  0  0  0
  -15.3969  -10.2614   13.7692 C   0  0  0  0  0  0  0  0  0  0  0  0
  -15.7163   -9.8917   12.8967 O   0  0  0  0  0  0  0  0  0  0  0  0
  -15.6977  -11.1670   14.0687 O   0  0  0  0  0  0  0  0  0  0  0  0
  -15.4345   -9.0433   12.6161 H   0  0  0  0  0  0  0  0  0  0  0  0
  -16.2438   -8.5241   17.0097 C   0  0  0  0  0  0  0  0  0  0  0  0
  -17.0730   -9.0026   17.2985 S   0  0  0  0  0  0  0  0  0  0  0  0
  -18.0763   -9.2231   16.4072 H   0  0  0  0  0  0  0  0  0  0  0  0
  -16.1977   -4.9314   17.0003 C   0  0  0  0  0  0  0  0  0  0  0  0
  -17.0238   -4.3766   16.9021 C   0  0  0  0  0  0  0  0  0  0  0  0
  -17.9623   -4.6880   17.0522 C   0  0  0  0  0  0  0  0  0  0  0  0
  -18.5751   -3.9169   16.8795 N   0  0  0  0  0  0  0  0  0  0  0  0
  -18.0154   -3.1289   16.6226 C   0  0  0  0  0  0  0  0  0  0  0  0
  -17.0567   -3.4131   16.6366 N   0  0  0  0  0  0  0  0  0  0  0  0
  -16.2814   -2.8441   16.4259 H   0  0  0  0  0  0  0  0  0  0  0  0
  -15.0259   -5.1842   13.3660 C   0  0  0  0  0  0  0  0  0  0  0  0
  -14.4706   -5.8715   12.8979 C   0  0  0  0  0  0  0  0  0  0  0  0
  -14.7918   -6.2749   12.0411 C   0  0  0  0  0  0  0  0  0  0  0  0
  -14.6843   -5.7747   11.1818 O   0  0  0  0  0  0  0  0  0  0  0  0
  -15.2204   -7.1783   12.0435 N   0  0  0  0  0  0  0  0  0  0  0  0
  -15.3262   -7.6707   12.8895 H   0  0  0  0  0  0  0  0  0  0  0  0
  -15.5366   -7.5754   11.2000 H   0  0  0  0  0  0  0  0  0  0  0  0
  -14.1880   -1.3293   14.2624 C   0  0  0  0  0  0  0  0  0  0  0  0
  -13.5285   -0.9944   14.9354 C   0  0  0  0  0  0  0  0  0  0  0  0
  -13.8479   -0.5139   15.7522 C   0  0  0  0  0  0  0  0  0  0  0  0
  -13.2280    0.0927   16.2500 C   0  0  0  0  0  0  0  0  0  0  0  0
  -12.7948    0.8610   15.7788 N   0  0  0  0  0  0  0  0  0  0  0  0
  -12.9853    1.0260   14.7904 H   0  0  0  0  0  0  0  0  0  0  0  0
  -12.1625    1.4796   16.2865 H   0  0  0  0  0  0  0  0  0  0  0  0
  -12.1036   -0.2917   11.2286 C   0  0  0  0  0  0  0  0  0  0  0  0
  -13.0013   -0.0317   10.8728 O   0  0  0  0  0  0  0  0  0  0  0  0
  -11.9363   -1.2319   11.5250 N   0  0  0  0  0  0  0  0  0  0  0  0
  -11.0526   -1.4879   11.8753 H   0  0  0  0  0  0  0  0  0  0  0  0
  -11.3731    0.3887   11.2881 C   0  0  0  0  0  0  0  0  0  0  0  0
  -10.7011    0.7153   12.8506 C   0  0  0  0  0  0  0  0  0  0  0  0
  -11.5015    1.2695   13.0791 O   0  0  0  0  0  0  0  0  0  0  0  0
  -10.6369    0.2750   11.9551 N   0  0  0  0  0  0  0  0  0  0  0  0
   -9.8489   -0.2706   11.7302 H   0  0  0  0  0  0  0  0  0  0  0  0
   -9.9649    0.6016   13.5177 C   0  0  0  0  0  0  0  0  0  0  0  0
   -9.6051   -0.6766   14.6298 C   0  0  0  0  0  0  0  0  0  0  0  0
   -8.8921   -1.0118   14.0139 O   0  0  0  0  0  0  0  0  0  0  0  0
  -10.1414    0.1301   14.3817 N   0  0  0  0  0  0  0  0  0  0  0  0
  -10.8433    0.4601   14.9880 H   0  0  0  0  0  0  0  0  0  0  0  0
   -9.7816   -1.1481   15.4939 C   0  0  0  0  0  0  0  0  0  0  0  0
   -9.4495   -0.7586   16.3529 C   0  0  0  0  0  0  0  0  0  0  0  0
  -10.0649   -2.7191   16.1658 C   0  0  0  0  0  0  0  0  0  0  0  0
   -9.3308   -2.5682   16.8279 O   0  0  0  0  0  0  0  0  0  0  0  0
  -10.2903   -2.0090   15.4988 N   0  0  0  0  0  0  0  0  0  0  0  0
  -11.0130   -2.1575   14.8470 H   0  0  0  0  0  0  0  0  0  0  0  0
  -10.5736   -3.5801   16.1708 C   0  0  0  0  0  0  0  0  0  0  0  0
  -11.6683   -3.8307   17.4894 C   0  0  0  0  0  0  0  0  0  0  0  0
  -12.3165   -3.1937   17.0723 O   0  0  0  0  0  0  0  0  0  0  0  0
  -10.7968   -4.0239   17.0387 N   0  0  0  0  0  0  0  0  0  0  0  0
  -10.1586   -4.6510   17.4493 H   0  0  0  0  0  0  0  0  0  0  0  0
  -11.8915   -4.2745   18.3573 C   0  0  0  0  0  0  0  0  0  0  0  0
  -10.8365   -5.2958   19.2758 C   0  0  0  0  0  0  0  0  0  0  0  0
  -10.5086   -4.4997   19.7844 O   0  0  0  0  0  0  0  0  0  0  0  0
  -11.5280   -5.1832   18.5623 N   0  0  0  0  0  0  0  0  0  0  0  0
  -11.8508   -5.9670   18.0615 H   0  0  0  0  0  0  0  0  0  0  0  0
  -11.0620   -6.8962   19.8987 N   0  0  0  0  0  0  0  0  0  0  0  0
  -10.4729   -6.2046   19.4808 C   0  0  0  0  0  0  0  0  0  0  0  0
  -10.6912   -7.8231   20.1077 H   0  0  0  0  0  0  0  0  0  0  0  0
  -12.0337   -6.6747   20.1159 H   0  0  0  0  0  0  0  0  0  0  0  0
   -9.5203   -6.4217   19.2679 C   0  0  0  0  0  0  0  0  0  0  0  0
   -9.1652   -6.2631   18.3466 O   0  0  0  0  0  0  0  0  0  0  0  0
   -8.9227   -6.7974   19.9762 C   0  0  0  0  0  0  0  0  0  0  0  0
   -9.7448   -5.8986   17.6595 H   0  0  0  0  0  0  0  0  0  0  0  0
  -12.4784   -3.8096   19.0202 C   0  0  0  0  0  0  0  0  0  0  0  0
  -13.4471   -4.0492   19.0849 C   0  0  0  0  0  0  0  0  0  0  0  0
  -14.0315   -3.5923   19.7557 C   0  0  0  0  0  0  0  0  0  0  0  0
  -14.1642   -3.9964   20.6607 O   0  0  0  0  0  0  0  0  0  0  0  0
  -14.4831   -2.7315   19.5213 N   0  0  0  0  0  0  0  0  0  0  0  0
  -14.3525   -2.3338   18.6303 H   0  0  0  0  0  0  0  0  0  0  0  0
  -15.0584   -2.2818   20.1816 H   0  0  0  0  0  0  0  0  0  0  0  0
  -10.8590   -3.9972   15.3080 C   0  0  0  0  0  0  0  0  0  0  0  0
  -10.3843   -4.8069   14.9630 C   0  0  0  0  0  0  0  0  0  0  0  0
  -10.8479   -5.4262   14.3293 C   0  0  0  0  0  0  0  0  0  0  0  0
  -11.2800   -6.2605   14.6717 O   0  0  0  0  0  0  0  0  0  0  0  0
  -10.8795   -5.2112   13.3532 N   0  0  0  0  0  0  0  0  0  0  0  0
  -10.4541   -4.3898   13.0161 H   0  0  0  0  0  0  0  0  0  0  0  0
  -11.3360   -5.8208   12.7293 H   0  0  0  0  0  0  0  0  0  0  0  0
   -9.0520    0.9593   13.3208 C   0  0  0  0  0  0  0  0  0  0  0  0
   -8.8524    1.9281   13.4671 O   0  0  0  0  0  0  0  0  0  0  0  0
   -7.9669    2.2751   13.2760 H   0  0  0  0  0  0  0  0  0  0  0  0
  -11.3790    1.1830   10.6804 C   0  0  0  0  0  0  0  0  0  0  0  0
  -10.7885    1.1995    9.8735 C   0  0  0  0  0  0  0  0  0  0  0  0
   -9.9149    1.6797    9.7942 C   0  0  0  0  0  0  0  0  0  0  0  0
   -9.5544    1.5158    8.8759 N   0  0  0  0  0  0  0  0  0  0  0  0
  -10.2053    0.9343    8.3877 C   0  0  0  0  0  0  0  0  0  0  0  0
  -10.9679    0.7389    9.0043 N   0  0  0  0  0  0  0  0  0  0  0  0
  -11.7570    0.1894    8.7927 H   0  0  0  0  0  0  0  0  0  0  0  0
 95 96  1  0  0  0
 95 97  1  0  0  0
 95 98  1  0  0  0
 96 91  1  0  0  0
 96 99  1  0  0  0
 91 92  2  0  0  0
 91 93  1  0  0  0
 93 90  1  0  0  0
 93 94  1  0  0  0
 90103  1  0  0  0
 90 86  1  0  0  0
103104  1  0  0  0
104105  1  0  0  0
105106  2  0  0  0
105107  1  0  0  0
107108  1  0  0  0
107109  1  0  0  0
 86 87  2  0  0  0
 86 88  1  0  0  0
 88 85  1  0  0  0
 88 89  1  0  0  0
 85110  1  0  0  0
 85 81  1  0  0  0
110111  1  0  0  0
111112  1  0  0  0
112113  2  0  0  0
112114  1  0  0  0
114115  1  0  0  0
114116  1  0  0  0
 81 82  2  0  0  0
 81 83  1  0  0  0
 83 79  1  0  0  0
 83 84  1  0  0  0
 79 80  1  0  0  0
 79 75  1  0  0  0
 75 76  2  0  0  0
 75 77  1  0  0  0
 77 74  1  0  0  0
 77 78  1  0  0  0
 74117  1  0  0  0
 74 70  1  0  0  0
117118  1  0  0  0
118119  1  0  0  0
 70 71  2  0  0  0
 70 72  1  0  0  0
 72 69  1  0  0  0
 72 73  1  0  0  0
 69120  1  0  0  0
 69 65  1  0  0  0
120121  1  0  0  0
121125  1  0  0  0
121122  2  0  0  0
122123  1  0  0  0
123124  2  0  0  0
124125  1  0  0  0
125126  1  0  0  0
 65 66  2  0  0  0
 65 67  1  0  0  0
 67  1  1  0  0  0
 67 68  1  0  0  0
  1  2  1  0  0  0
  1 10  1  0  0  0
  2  8  2  0  0  0
  2  3  1  0  0  0
  3  4  2  0  0  0
  4  5  1  0  0  0
  5  6  1  0  0  0
  5  7  2  0  0  0
  6  9  1  0  0  0
  7  8  1  0  0  0
 10 11  2  0  0  0
 10 12  1  0  0  0
 12 14  1  0  0  0
 12 13  1  0  0  0
 14 58  1  0  0  0
 14 15  1  0  0  0
 58 59  1  0  0  0
 59 60  1  0  0  0
 60 61  1  0  0  0
 61 62  1  0  0  0
 62 63  1  0  0  0
 62 64  1  0  0  0
 15 16  2  0  0  0
 15 17  1  0  0  0
 17 19  1  0  0  0
 17 18  1  0  0  0
 19 51  1  0  0  0
 19 20  1  0  0  0
 51 52  1  0  0  0
 52 53  1  0  0  0
 53 54  2  0  0  0
 53 55  1  0  0  0
 55 56  1  0  0  0
 55 57  1  0  0  0
 20 21  2  0  0  0
 20 22  1  0  0  0
 22 24  1  0  0  0
 22 23  1  0  0  0
 24 44  1  0  0  0
 24 25  1  0  0  0
 44 45  1  0  0  0
 45 49  1  0  0  0
 45 46  2  0  0  0
 46 47  1  0  0  0
 47 48  2  0  0  0
 48 49  1  0  0  0
 49 50  1  0  0  0
 25 26  2  0  0  0
 25 27  1  0  0  0
 27 29  1  0  0  0
 27 28  1  0  0  0
 29 41  1  0  0  0
 29 30  1  0  0  0
 41 42  1  0  0  0
 42 43  1  0  0  0
 30 31  2  0  0  0
 30 32  1  0  0  0
 32 36  1  0  0  0
 32 33  1  0  0  0
 33 34  1  0  0  0
 34 35  1  0  0  0
 35 36  1  0  0  0
 36 37  1  0  0  0
 37 38  1  0  0  0
 37 39  2  0  0  0
 38 40  1  0  0  0
 99100  1  0  0  0
 99101  1  0  0  0
100102  1  0  0  0
M  END
> <minimizedAffinity>
-6.06623

$$$$



126129  0  0  0  0  0  0  0  0999 V2000
  -11.8908   -2.3778   11.9231 C   0  0  0  0  0  0  0  0  0  0  0  0
  -12.2786   -2.9275   11.1833 C   0  0  0  0  0  0  0  0  0  0  0  0
  -11.6839   -3.2927   10.4671 C   0  0  0  0  0  0  0  0  0  0  0  0
  -12.0718   -3.8425    9.7272 C   0  0  0  0  0  0  0  0  0  0  0  0
  -13.0544   -4.0270    9.7036 C   0  0  0  0  0  0  0  0  0  0  0  0
  -13.4422   -4.5768    8.9638 O   0  0  0  0  0  0  0  0  0  0  0  0
  -13.6491   -3.6618   10.4198 C   0  0  0  0  0  0  0  0  0  0  0  0
  -13.2612   -3.1121   11.1596 C   0  0  0  0  0  0  0  0  0  0  0  0
  -12.8850   -4.9190    8.2927 H   0  0  0  0  0  0  0  0  0  0  0  0
  -11.9717   -2.6866   12.8708 C   0  0  0  0  0  0  0  0  0  0  0  0
  -12.8540   -2.6380   13.3389 O   0  0  0  0  0  0  0  0  0  0  0  0
  -11.1703   -3.0440   13.3503 N   0  0  0  0  0  0  0  0  0  0  0  0
  -10.3016   -3.0919   12.8894 H   0  0  0  0  0  0  0  0  0  0  0  0
  -11.2511   -3.3529   14.2980 C   0  0  0  0  0  0  0  0  0  0  0  0
  -11.4269   -4.3171   14.4964 C   0  0  0  0  0  0  0  0  0  0  0  0
  -10.7963   -5.0188   14.1649 O   0  0  0  0  0  0  0  0  0  0  0  0
  -12.2332   -4.5796   15.0264 N   0  0  0  0  0  0  0  0  0  0  0  0
  -12.8540   -3.8888   15.3528 H   0  0  0  0  0  0  0  0  0  0  0  0
  -12.4090   -5.5439   15.2248 C   0  0  0  0  0  0  0  0  0  0  0  0
  -12.2717   -5.8970   16.1502 C   0  0  0  0  0  0  0  0  0  0  0  0
  -12.2836   -6.8831   16.3160 O   0  0  0  0  0  0  0  0  0  0  0  0
  -12.1224   -5.2640   16.9099 N   0  0  0  0  0  0  0  0  0  0  0  0
  -12.1107   -4.2932   16.7467 H   0  0  0  0  0  0  0  0  0  0  0  0
  -11.9851   -5.6171   17.8353 C   0  0  0  0  0  0  0  0  0  0  0  0
  -12.7123   -5.5310   18.5163 C   0  0  0  0  0  0  0  0  0  0  0  0
  -12.6293   -5.9958   19.3979 O   0  0  0  0  0  0  0  0  0  0  0  0
  -13.5224   -4.9802   18.3158 N   0  0  0  0  0  0  0  0  0  0  0  0
  -13.6041   -4.5227   17.4480 H   0  0  0  0  0  0  0  0  0  0  0  0
  -14.2496   -4.8941   18.9968 C   0  0  0  0  0  0  0  0  0  0  0  0
  -14.3248   -4.0614   19.5454 C   0  0  0  0  0  0  0  0  0  0  0  0
  -14.2059   -4.1037   20.5374 O   0  0  0  0  0  0  0  0  0  0  0  0
  -14.5190   -3.1863   19.1019 N   0  0  0  0  0  0  0  0  0  0  0  0
  -14.6535   -3.0412   18.1217 C   0  0  0  0  0  0  0  0  0  0  0  0
  -14.8304   -2.0680   17.9749 C   0  0  0  0  0  0  0  0  0  0  0  0
  -14.8052   -1.6117   18.8644 C   0  0  0  0  0  0  0  0  0  0  0  0
  -14.6127   -2.3029   19.5609 C   0  0  0  0  0  0  0  0  0  0  0  0
  -14.5288   -2.1393   20.5438 C   0  0  0  0  0  0  0  0  0  0  0  0
  -13.6476   -1.8698   20.9324 O   0  0  0  0  0  0  0  0  0  0  0  0
  -15.3260   -2.2452   21.1383 O   0  0  0  0  0  0  0  0  0  0  0  0
  -12.9007   -1.7706   20.3755 H   0  0  0  0  0  0  0  0  0  0  0  0
  -14.9016   -5.6408   19.1293 C   0  0  0  0  0  0  0  0  0  0  0  0
  -15.5806   -5.8427   18.4235 S   0  0  0  0  0  0  0  0  0  0  0  0
  -15.6175   -5.1021   17.2835 H   0  0  0  0  0  0  0  0  0  0  0  0
  -11.1206   -6.0564   18.0798 C   0  0  0  0  0  0  0  0  0  0  0  0
  -10.3506   -5.5027   18.3968 C   0  0  0  0  0  0  0  0  0  0  0  0
   -9.9602   -4.7129   17.9237 C   0  0  0  0  0  0  0  0  0  0  0  0
   -9.2042   -4.3637   18.4772 N   0  0  0  0  0  0  0  0  0  0  0  0
   -9.1271   -4.9378   19.2925 C   0  0  0  0  0  0  0  0  0  0  0  0
   -9.8357   -5.6417   19.2427 N   0  0  0  0  0  0  0  0  0  0  0  0
   -9.9978   -6.3476   19.9096 H   0  0  0  0  0  0  0  0  0  0  0  0
  -12.7221   -6.1549   14.4978 C   0  0  0  0  0  0  0  0  0  0  0  0
  -13.6655   -6.1009   14.1708 C   0  0  0  0  0  0  0  0  0  0  0  0
  -13.9725   -6.6967   13.4287 C   0  0  0  0  0  0  0  0  0  0  0  0
  -14.1594   -6.3130   12.5243 O   0  0  0  0  0  0  0  0  0  0  0  0
  -14.0925   -7.6761   13.5909 N   0  0  0  0  0  0  0  0  0  0  0  0
  -13.9084   -8.0537   14.4812 H   0  0  0  0  0  0  0  0  0  0  0  0
  -14.3947   -8.2626   12.8602 H   0  0  0  0  0  0  0  0  0  0  0  0
  -11.1562   -2.6975   15.0473 C   0  0  0  0  0  0  0  0  0  0  0  0
  -10.2522   -2.3494   15.2956 C   0  0  0  0  0  0  0  0  0  0  0  0
  -10.1701   -1.5615   15.9058 C   0  0  0  0  0  0  0  0  0  0  0  0
   -9.2730   -1.1558   16.0807 C   0  0  0  0  0  0  0  0  0  0  0  0
   -9.1486   -0.1663   16.0063 N   0  0  0  0  0  0  0  0  0  0  0  0
   -9.9368    0.4291   15.7521 H   0  0  0  0  0  0  0  0  0  0  0  0
   -8.2335    0.2475   16.1847 H   0  0  0  0  0  0  0  0  0  0  0  0
  -11.8955   -0.6477   11.8422 C   0  0  0  0  0  0  0  0  0  0  0  0
  -12.8378   -0.6346   12.1770 O   0  0  0  0  0  0  0  0  0  0  0  0
  -11.4221   -1.5193   11.7153 N   0  0  0  0  0  0  0  0  0  0  0  0
  -10.4945   -1.5322   11.3858 H   0  0  0  0  0  0  0  0  0  0  0  0
  -11.4268    0.2109   11.6344 C   0  0  0  0  0  0  0  0  0  0  0  0
  -10.9034    1.1510   12.9917 C   0  0  0  0  0  0  0  0  0  0  0  0
  -10.1514    0.5102   13.1456 O   0  0  0  0  0  0  0  0  0  0  0  0
  -11.5412    1.0014   12.2361 N   0  0  0  0  0  0  0  0  0  0  0  0
  -12.2816    1.6323   12.0845 H   0  0  0  0  0  0  0  0  0  0  0  0
  -11.0178    1.9415   13.5934 C   0  0  0  0  0  0  0  0  0  0  0  0
  -12.0705    2.1066   14.9589 C   0  0  0  0  0  0  0  0  0  0  0  0
  -12.7571    2.5422   14.3768 O   0  0  0  0  0  0  0  0  0  0  0  0
  -11.2008    1.8063   14.5672 N   0  0  0  0  0  0  0  0  0  0  0  0
  -10.5248    1.3775   15.1402 H   0  0  0  0  0  0  0  0  0  0  0  0
  -12.2535    1.9715   15.9327 C   0  0  0  0  0  0  0  0  0  0  0  0
  -12.6719    1.1202   16.2493 C   0  0  0  0  0  0  0  0  0  0  0  0
  -11.3288    2.5137   17.2930 C   0  0  0  0  0  0  0  0  0  0  0  0
  -10.8749    1.6239   17.3392 O   0  0  0  0  0  0  0  0  0  0  0  0
  -12.0181    2.6875   16.5898 N   0  0  0  0  0  0  0  0  0  0  0  0
  -12.4649    3.5636   16.5443 H   0  0  0  0  0  0  0  0  0  0  0  0
  -11.0933    3.2298   17.9502 C   0  0  0  0  0  0  0  0  0  0  0  0
  -12.0377    3.5766   19.3601 C   0  0  0  0  0  0  0  0  0  0  0  0
  -11.5346    2.8780   19.8689 O   0  0  0  0  0  0  0  0  0  0  0  0
  -11.8170    3.7525   18.4008 N   0  0  0  0  0  0  0  0  0  0  0  0
  -12.3122    4.4403   17.8999 H   0  0  0  0  0  0  0  0  0  0  0  0
  -12.7614    4.0993   19.8107 C   0  0  0  0  0  0  0  0  0  0  0  0
  -14.2847    3.3140   20.0616 C   0  0  0  0  0  0  0  0  0  0  0  0
  -14.5148    3.4527   19.0984 O   0  0  0  0  0  0  0  0  0  0  0  0
  -13.4080    3.6373   20.4178 N   0  0  0  0  0  0  0  0  0  0  0  0
  -13.1813    3.5008   21.3661 H   0  0  0  0  0  0  0  0  0  0  0  0
  -15.4490    3.3795   21.3423 N   0  0  0  0  0  0  0  0  0  0  0  0
  -14.9313    2.8520   20.6687 C   0  0  0  0  0  0  0  0  0  0  0  0
  -16.1085    2.9084   21.9616 H   0  0  0  0  0  0  0  0  0  0  0  0
  -15.3176    4.3888   21.4101 H   0  0  0  0  0  0  0  0  0  0  0  0
  -15.0601    1.8626   20.6023 C   0  0  0  0  0  0  0  0  0  0  0  0
  -14.2749    1.2493   20.6878 O   0  0  0  0  0  0  0  0  0  0  0  0
  -15.9741    1.4865   20.4503 C   0  0  0  0  0  0  0  0  0  0  0  0
  -13.3883    1.6142   20.8352 H   0  0  0  0  0  0  0  0  0  0  0  0
  -12.8386    5.0839   19.6543 C   0  0  0  0  0  0  0  0  0  0  0  0
  -12.4982    5.7273   20.3400 C   0  0  0  0  0  0  0  0  0  0  0  0
  -12.2994    6.6731   20.0831 C   0  0  0  0  0  0  0  0  0  0  0  0
  -11.4448    7.1018   20.3761 O   0  0  0  0  0  0  0  0  0  0  0  0
  -12.9554    7.1902   19.5332 N   0  0  0  0  0  0  0  0  0  0  0  0
  -13.7967    6.7682   19.2448 H   0  0  0  0  0  0  0  0  0  0  0  0
  -12.7597    8.1213   19.2803 H   0  0  0  0  0  0  0  0  0  0  0  0
  -10.1342    3.4232   18.1568 C   0  0  0  0  0  0  0  0  0  0  0  0
   -9.6773    4.2020   17.7269 C   0  0  0  0  0  0  0  0  0  0  0  0
   -8.6871    4.3111   17.8139 C   0  0  0  0  0  0  0  0  0  0  0  0
   -8.1156    4.3598   16.9947 O   0  0  0  0  0  0  0  0  0  0  0  0
   -8.2684    4.3715   18.7200 N   0  0  0  0  0  0  0  0  0  0  0  0
   -8.8311    4.3236   19.5265 H   0  0  0  0  0  0  0  0  0  0  0  0
   -7.2935    4.4790   18.8056 H   0  0  0  0  0  0  0  0  0  0  0  0
  -10.9492    2.8671   13.2213 C   0  0  0  0  0  0  0  0  0  0  0  0
  -10.0526    3.2951   13.1077 O   0  0  0  0  0  0  0  0  0  0  0  0
   -9.9860    4.1930   12.7468 H   0  0  0  0  0  0  0  0  0  0  0  0
  -10.8437    0.2789   10.8248 C   0  0  0  0  0  0  0  0  0  0  0  0
  -11.0881    0.9041   10.0836 C   0  0  0  0  0  0  0  0  0  0  0  0
  -11.9010    0.8401    9.5047 C   0  0  0  0  0  0  0  0  0  0  0  0
  -11.8780    1.5995    8.8544 N   0  0  0  0  0  0  0  0  0  0  0  0
  -11.0508    2.1329    9.0316 C   0  0  0  0  0  0  0  0  0  0  0  0
  -10.5627    1.7030    9.7912 N   0  0  0  0  0  0  0  0  0  0  0  0
   -9.7138    2.0122   10.1825 H   0  0  0  0  0  0  0  0  0  0  0  0
 95 96  1  0  0  0
 95 97  1  0  0  0
 95 98  1  0  0  0
 96 91  1  0  0  0
 96 99  1  0  0  0
 91 92  2  0  0  0
 91 93  1  0  0  0
 93 90  1  0  0  0
 93 94  1  0  0  0
 90103  1  0  0  0
 90 86  1  0  0  0
103104  1  0  0  0
104105  1  0  0  0
105106  2  0  0  0
105107  1  0  0  0
107108  1  0  0  0
107109  1  0  0  0
 86 87  2  0  0  0
 86 88  1  0  0  0
 88 85  1  0  0  0
 88 89  1  0  0  0
 85110  1  0  0  0
 85 81  1  0  0  0
110111  1  0  0  0
111112  1  0  0  0
112113  2  0  0  0
112114  1  0  0  0
114115  1  0  0  0
114116  1  0  0  0
 81 82  2  0  0  0
 81 83  1  0  0  0
 83 79  1  0  0  0
 83 84  1  0  0  0
 79 80  1  0  0  0
 79 75  1  0  0  0
 75 76  2  0  0  0
 75 77  1  0  0  0
 77 74  1  0  0  0
 77 78  1  0  0  0
 74117  1  0  0  0
 74 70  1  0  0  0
117118  1  0  0  0
118119  1  0  0  0
 70 71  2  0  0  0
 70 72  1  0  0  0
 72 69  1  0  0  0
 72 73  1  0  0  0
 69120  1  0  0  0
 69 65  1  0  0  0
120121  1  0  0  0
121125  1  0  0  0
121122  2  0  0  0
122123  1  0  0  0
123124  2  0  0  0
124125  1  0  0  0
125126  1  0  0  0
 65 66  2  0  0  0
 65 67  1  0  0  0
 67  1  1  0  0  0
 67 68  1  0  0  0
  1  2  1  0  0  0
  1 10  1  0  0  0
  2  8  2  0  0  0
  2  3  1  0  0  0
  3  4  2  0  0  0
  4  5  1  0  0  0
  5  6  1  0  0  0
  5  7  2  0  0  0
  6  9  1  0  0  0
  7  8  1  0  0  0
 10 11  2  0  0  0
 10 12  1  0  0  0
 12 14  1  0  0  0
 12 13  1  0  0  0
 14 58  1  0  0  0
 14 15  1  0  0  0
 58 59  1  0  0  0
 59 60  1  0  0  0
 60 61  1  0  0  0
 61 62  1  0  0  0
 62 63  1  0  0  0
 62 64  1  0  0  0
 15 16  2  0  0  0
 15 17  1  0  0  0
 17 19  1  0  0  0
 17 18  1  0  0  0
 19 51  1  0  0  0
 19 20  1  0  0  0
 51 52  1  0  0  0
 52 53  1  0  0  0
 53 54  2  0  0  0
 53 55  1  0  0  0
 55 56  1  0  0  0
 55 57  1  0  0  0
 20 21  2  0  0  0
 20 22  1  0  0  0
 22 24  1  0  0  0
 22 23  1  0  0  0
 24 44  1  0  0  0
 24 25  1  0  0  0
 44 45  1  0  0  0
 45 49  1  0  0  0
 45 46  2  0  0  0
 46 47  1  0  0  0
 47 48  2  0  0  0
 48 49  1  0  0  0
 49 50  1  0  0  0
 25 26  2  0  0  0
 25 27  1  0  0  0
 27 29  1  0  0  0
 27 28  1  0  0  0
 29 41  1  0  0  0
 29 30  1  0  0  0
 41 42  1  0  0  0
 42 43  1  0  0  0
 30 31  2  0  0  0
 30 32  1  0  0  0
 32 36  1  0  0  0
 32 33  1  0  0  0
 33 34  1  0  0  0
 34 35  1  0  0  0
 35 36  1  0  0  0
 36 37  1  0  0  0
 37 38  1  0  0  0
 37 39  2  0  0  0
 38 40  1  0  0  0
 99100  1  0  0  0
 99101  1  0  0  0
100102  1  0  0  0
M  END
> <minimizedAffinity>
-6.00972

$$$$



126129  0  0  0  0  0  0  0  0999 V2000
  -16.0543  -11.5237   15.5146 C   0  0  0  0  0  0  0  0  0  0  0  0
  -16.3514  -12.4071   15.8768 C   0  0  0  0  0  0  0  0  0  0  0  0
  -15.6746  -13.0668   16.2034 C   0  0  0  0  0  0  0  0  0  0  0  0
  -15.9717  -13.9503   16.5656 C   0  0  0  0  0  0  0  0  0  0  0  0
  -16.9457  -14.1741   16.6012 C   0  0  0  0  0  0  0  0  0  0  0  0
  -17.2428  -15.0576   16.9633 O   0  0  0  0  0  0  0  0  0  0  0  0
  -17.6226  -13.5144   16.2745 C   0  0  0  0  0  0  0  0  0  0  0  0
  -17.3255  -12.6310   15.9123 C   0  0  0  0  0  0  0  0  0  0  0  0
  -16.6086  -15.6757   17.2694 H   0  0  0  0  0  0  0  0  0  0  0  0
  -15.9815  -10.7330   16.1225 C   0  0  0  0  0  0  0  0  0  0  0  0
  -15.3520  -10.7558   16.8991 O   0  0  0  0  0  0  0  0  0  0  0  0
  -16.5382   -9.9196   15.9537 N   0  0  0  0  0  0  0  0  0  0  0  0
  -17.1579   -9.8972   15.1891 H   0  0  0  0  0  0  0  0  0  0  0  0
  -16.4654   -9.1289   16.5617 C   0  0  0  0  0  0  0  0  0  0  0  0
  -15.9940   -8.3027   16.2532 C   0  0  0  0  0  0  0  0  0  0  0  0
  -16.3209   -7.8129   15.4450 O   0  0  0  0  0  0  0  0  0  0  0  0
  -15.1957   -7.9664   16.7528 N   0  0  0  0  0  0  0  0  0  0  0  0
  -14.8739   -8.4488   17.5484 H   0  0  0  0  0  0  0  0  0  0  0  0
  -14.7243   -7.1403   16.4443 C   0  0  0  0  0  0  0  0  0  0  0  0
  -14.8224   -6.2876   16.9573 C   0  0  0  0  0  0  0  0  0  0  0  0
  -14.7720   -5.4093   16.4818 O   0  0  0  0  0  0  0  0  0  0  0  0
  -14.9710   -6.3131   17.9460 N   0  0  0  0  0  0  0  0  0  0  0  0
  -15.0206   -7.1777   18.4141 H   0  0  0  0  0  0  0  0  0  0  0  0
  -15.0691   -5.4603   18.4590 C   0  0  0  0  0  0  0  0  0  0  0  0
  -14.3058   -5.1145   19.0047 C   0  0  0  0  0  0  0  0  0  0  0  0
  -13.9839   -5.6312   19.7980 O   0  0  0  0  0  0  0  0  0  0  0  0
  -13.8645   -4.2520   18.7571 N   0  0  0  0  0  0  0  0  0  0  0  0
  -14.1815   -3.7433   17.9761 H   0  0  0  0  0  0  0  0  0  0  0  0
  -13.1013   -3.9062   19.3028 C   0  0  0  0  0  0  0  0  0  0  0  0
  -12.1602   -4.1016   19.0267 C   0  0  0  0  0  0  0  0  0  0  0  0
  -11.5704   -4.6532   19.6164 O   0  0  0  0  0  0  0  0  0  0  0  0
  -11.8090   -3.7453   18.1608 N   0  0  0  0  0  0  0  0  0  0  0  0
  -12.3177   -3.1870   17.5054 C   0  0  0  0  0  0  0  0  0  0  0  0
  -11.7105   -2.9815   16.7379 C   0  0  0  0  0  0  0  0  0  0  0  0
  -10.8266   -3.4128   16.9189 C   0  0  0  0  0  0  0  0  0  0  0  0
  -10.8875   -3.8849   17.7983 C   0  0  0  0  0  0  0  0  0  0  0  0
  -10.1555   -4.4051   18.2381 C   0  0  0  0  0  0  0  0  0  0  0  0
   -9.4907   -3.9380   18.8211 O   0  0  0  0  0  0  0  0  0  0  0  0
  -10.0882   -5.3926   18.0948 O   0  0  0  0  0  0  0  0  0  0  0  0
   -9.5538   -3.0129   18.9553 H   0  0  0  0  0  0  0  0  0  0  0  0
  -13.2790   -3.3649   20.1247 C   0  0  0  0  0  0  0  0  0  0  0  0
  -13.8044   -2.5164   20.0608 S   0  0  0  0  0  0  0  0  0  0  0  0
  -14.2772   -2.0986   18.8560 H   0  0  0  0  0  0  0  0  0  0  0  0
  -15.9305   -4.9535   18.4264 C   0  0  0  0  0  0  0  0  0  0  0  0
  -16.7325   -5.2985   18.9139 C   0  0  0  0  0  0  0  0  0  0  0  0
  -17.6232   -5.5046   18.5086 C   0  0  0  0  0  0  0  0  0  0  0  0
  -18.2258   -5.8315   19.2366 N   0  0  0  0  0  0  0  0  0  0  0  0
  -17.7076   -5.8275   20.0919 C   0  0  0  0  0  0  0  0  0  0  0  0
  -16.7846   -5.4980   19.8924 N   0  0  0  0  0  0  0  0  0  0  0  0
  -16.0555   -5.3892   20.5449 H   0  0  0  0  0  0  0  0  0  0  0  0
  -14.1548   -7.1668   15.6228 C   0  0  0  0  0  0  0  0  0  0  0  0
  -13.2077   -7.4824   15.6809 C   0  0  0  0  0  0  0  0  0  0  0  0
  -12.5284   -7.1486   15.0274 C   0  0  0  0  0  0  0  0  0  0  0  0
  -11.8207   -6.5077   15.3252 O   0  0  0  0  0  0  0  0  0  0  0  0
  -12.5567   -7.4555   14.0761 N   0  0  0  0  0  0  0  0  0  0  0  0
  -13.2534   -8.0863   13.7830 H   0  0  0  0  0  0  0  0  0  0  0  0
  -11.8879   -7.1268   13.4327 H   0  0  0  0  0  0  0  0  0  0  0  0
  -16.8640   -9.1645   17.4781 C   0  0  0  0  0  0  0  0  0  0  0  0
  -17.8537   -9.0831   17.5964 C   0  0  0  0  0  0  0  0  0  0  0  0
  -18.2579   -9.1772   18.5062 C   0  0  0  0  0  0  0  0  0  0  0  0
  -19.0798   -9.7324   18.6332 C   0  0  0  0  0  0  0  0  0  0  0  0
  -19.9229   -9.3091   18.9650 N   0  0  0  0  0  0  0  0  0  0  0  0
  -19.9444   -8.3109   19.1739 H   0  0  0  0  0  0  0  0  0  0  0  0
  -20.7612   -9.8754   19.0945 H   0  0  0  0  0  0  0  0  0  0  0  0
  -14.8937  -11.2174   14.2660 C   0  0  0  0  0  0  0  0  0  0  0  0
  -14.1815  -11.0967   14.9576 O   0  0  0  0  0  0  0  0  0  0  0  0
  -15.8301  -11.4308   14.5445 N   0  0  0  0  0  0  0  0  0  0  0  0
  -16.5312  -11.5496   13.8637 H   0  0  0  0  0  0  0  0  0  0  0  0
  -14.6694  -11.1245   13.2959 C   0  0  0  0  0  0  0  0  0  0  0  0
  -15.1162   -9.6916   12.4316 C   0  0  0  0  0  0  0  0  0  0  0  0
  -14.3120   -9.2215   12.7953 O   0  0  0  0  0  0  0  0  0  0  0  0
  -15.2949  -10.6431   12.6819 N   0  0  0  0  0  0  0  0  0  0  0  0
  -16.0867  -11.1060   12.3239 H   0  0  0  0  0  0  0  0  0  0  0  0
  -15.7417   -9.2101   11.8177 C   0  0  0  0  0  0  0  0  0  0  0  0
  -17.2902   -8.5186   12.1697 C   0  0  0  0  0  0  0  0  0  0  0  0
  -17.7368   -9.3484   11.8351 O   0  0  0  0  0  0  0  0  0  0  0  0
  -16.2927   -8.4495   12.1610 N   0  0  0  0  0  0  0  0  0  0  0  0
  -15.8529   -7.6326   12.4905 H   0  0  0  0  0  0  0  0  0  0  0  0
  -17.8412   -7.7580   12.5131 C   0  0  0  0  0  0  0  0  0  0  0  0
  -18.6255   -7.9369   13.1071 C   0  0  0  0  0  0  0  0  0  0  0  0
  -18.1615   -6.3283   11.5894 C   0  0  0  0  0  0  0  0  0  0  0  0
  -18.9487   -6.7776   11.1670 O   0  0  0  0  0  0  0  0  0  0  0  0
  -17.6078   -6.8185   12.2625 N   0  0  0  0  0  0  0  0  0  0  0  0
  -16.8328   -6.3761   12.6785 H   0  0  0  0  0  0  0  0  0  0  0  0
  -17.9282   -5.3887   11.3388 C   0  0  0  0  0  0  0  0  0  0  0  0
  -16.3846   -5.2033   10.5752 C   0  0  0  0  0  0  0  0  0  0  0  0
  -16.7448   -5.6274    9.7443 O   0  0  0  0  0  0  0  0  0  0  0  0
  -16.9763   -5.0840   11.3725 N   0  0  0  0  0  0  0  0  0  0  0  0
  -16.6218   -4.6665   12.1905 H   0  0  0  0  0  0  0  0  0  0  0  0
  -15.4328   -4.8986   10.6089 C   0  0  0  0  0  0  0  0  0  0  0  0
  -14.5691   -4.9800   12.1080 C   0  0  0  0  0  0  0  0  0  0  0  0
  -14.4112   -5.9569   11.9641 O   0  0  0  0  0  0  0  0  0  0  0  0
  -15.0799   -4.4509   11.4304 N   0  0  0  0  0  0  0  0  0  0  0  0
  -15.2354   -3.4891   11.5721 H   0  0  0  0  0  0  0  0  0  0  0  0
  -14.7730   -4.4996   13.7596 N   0  0  0  0  0  0  0  0  0  0  0  0
  -14.2162   -4.5321   12.9296 C   0  0  0  0  0  0  0  0  0  0  0  0
  -14.4131   -4.0428   14.5976 H   0  0  0  0  0  0  0  0  0  0  0  0
  -15.7009   -4.9232   13.7682 H   0  0  0  0  0  0  0  0  0  0  0  0
  -13.3065   -4.1169   12.9212 C   0  0  0  0  0  0  0  0  0  0  0  0
  -12.5272   -4.6275   12.5580 O   0  0  0  0  0  0  0  0  0  0  0  0
  -13.1762   -3.1911   13.2759 C   0  0  0  0  0  0  0  0  0  0  0  0
  -12.6536   -5.5256   12.2140 H   0  0  0  0  0  0  0  0  0  0  0  0
  -14.8338   -5.0417    9.8210 C   0  0  0  0  0  0  0  0  0  0  0  0
  -14.4492   -4.2562    9.3362 C   0  0  0  0  0  0  0  0  0  0  0  0
  -13.6051   -4.3579    8.8097 C   0  0  0  0  0  0  0  0  0  0  0  0
  -12.7275   -4.4376    9.2823 O   0  0  0  0  0  0  0  0  0  0  0  0
  -13.6387   -4.3798    7.8105 N   0  0  0  0  0  0  0  0  0  0  0  0
  -14.5027   -4.3013    7.3452 H   0  0  0  0  0  0  0  0  0  0  0  0
  -12.8077   -4.4799    7.2921 H   0  0  0  0  0  0  0  0  0  0  0  0
  -18.6466   -4.7539   11.0545 C   0  0  0  0  0  0  0  0  0  0  0  0
  -18.9029   -3.9907   11.6477 C   0  0  0  0  0  0  0  0  0  0  0  0
  -19.6507   -3.3815   11.3837 C   0  0  0  0  0  0  0  0  0  0  0  0
  -19.6443   -2.4257   11.6774 O   0  0  0  0  0  0  0  0  0  0  0  0
  -20.4049   -3.7282   10.8260 N   0  0  0  0  0  0  0  0  0  0  0  0
  -20.4112   -4.6693   10.5369 H   0  0  0  0  0  0  0  0  0  0  0  0
  -21.1411   -3.1284   10.5661 H   0  0  0  0  0  0  0  0  0  0  0  0
  -15.8163   -9.4893   10.8604 C   0  0  0  0  0  0  0  0  0  0  0  0
  -15.1579   -9.1508   10.1881 O   0  0  0  0  0  0  0  0  0  0  0  0
  -15.2303   -9.4217    9.2594 H   0  0  0  0  0  0  0  0  0  0  0  0
  -13.8196  -11.5132   12.9397 C   0  0  0  0  0  0  0  0  0  0  0  0
  -13.7879  -12.4720   12.6577 C   0  0  0  0  0  0  0  0  0  0  0  0
  -14.2667  -12.8708   11.8756 C   0  0  0  0  0  0  0  0  0  0  0  0
  -14.0466  -13.8458   11.8428 N   0  0  0  0  0  0  0  0  0  0  0  0
  -13.4316  -14.0495   12.6046 C   0  0  0  0  0  0  0  0  0  0  0  0
  -13.2718  -13.2004   13.1082 N   0  0  0  0  0  0  0  0  0  0  0  0
  -12.7056  -13.0995   13.9073 H   0  0  0  0  0  0  0  0  0  0  0  0
 95 96  1  0  0  0
 95 97  1  0  0  0
 95 98  1  0  0  0
 96 91  1  0  0  0
 96 99  1  0  0  0
 91 92  2  0  0  0
 91 93  1  0  0  0
 93 90  1  0  0  0
 93 94  1  0  0  0
 90103  1  0  0  0
 90 86  1  0  0  0
103104  1  0  0  0
104105  1  0  0  0
105106  2  0  0  0
105107  1  0  0  0
107108  1  0  0  0
107109  1  0  0  0
 86 87  2  0  0  0
 86 88  1  0  0  0
 88 85  1  0  0  0
 88 89  1  0  0  0
 85110  1  0  0  0
 85 81  1  0  0  0
110111  1  0  0  0
111112  1  0  0  0
112113  2  0  0  0
112114  1  0  0  0
114115  1  0  0  0
114116  1  0  0  0
 81 82  2  0  0  0
 81 83  1  0  0  0
 83 79  1  0  0  0
 83 84  1  0  0  0
 79 80  1  0  0  0
 79 75  1  0  0  0
 75 76  2  0  0  0
 75 77  1  0  0  0
 77 74  1  0  0  0
 77 78  1  0  0  0
 74117  1  0  0  0
 74 70  1  0  0  0
117118  1  0  0  0
118119  1  0  0  0
 70 71  2  0  0  0
 70 72  1  0  0  0
 72 69  1  0  0  0
 72 73  1  0  0  0
 69120  1  0  0  0
 69 65  1  0  0  0
120121  1  0  0  0
121125  1  0  0  0
121122  2  0  0  0
122123  1  0  0  0
123124  2  0  0  0
124125  1  0  0  0
125126  1  0  0  0
 65 66  2  0  0  0
 65 67  1  0  0  0
 67  1  1  0  0  0
 67 68  1  0  0  0
  1  2  1  0  0  0
  1 10  1  0  0  0
  2  8  2  0  0  0
  2  3  1  0  0  0
  3  4  2  0  0  0
  4  5  1  0  0  0
  5  6  1  0  0  0
  5  7  2  0  0  0
  6  9  1  0  0  0
  7  8  1  0  0  0
 10 11  2  0  0  0
 10 12  1  0  0  0
 12 14  1  0  0  0
 12 13  1  0  0  0
 14 58  1  0  0  0
 14 15  1  0  0  0
 58 59  1  0  0  0
 59 60  1  0  0  0
 60 61  1  0  0  0
 61 62  1  0  0  0
 62 63  1  0  0  0
 62 64  1  0  0  0
 15 16  2  0  0  0
 15 17  1  0  0  0
 17 19  1  0  0  0
 17 18  1  0  0  0
 19 51  1  0  0  0
 19 20  1  0  0  0
 51 52  1  0  0  0
 52 53  1  0  0  0
 53 54  2  0  0  0
 53 55  1  0  0  0
 55 56  1  0  0  0
 55 57  1  0  0  0
 20 21  2  0  0  0
 20 22  1  0  0  0
 22 24  1  0  0  0
 22 23  1  0  0  0
 24 44  1  0  0  0
 24 25  1  0  0  0
 44 45  1  0  0  0
 45 49  1  0  0  0
 45 46  2  0  0  0
 46 47  1  0  0  0
 47 48  2  0  0  0
 48 49  1  0  0  0
 49 50  1  0  0  0
 25 26  2  0  0  0
 25 27  1  0  0  0
 27 29  1  0  0  0
 27 28  1  0  0  0
 29 41  1  0  0  0
 29 30  1  0  0  0
 41 42  1  0  0  0
 42 43  1  0  0  0
 30 31  2  0  0  0
 30 32  1  0  0  0
 32 36  1  0  0  0
 32 33  1  0  0  0
 33 34  1  0  0  0
 34 35  1  0  0  0
 35 36  1  0  0  0
 36 37  1  0  0  0
 37 38  1  0  0  0
 37 39  2  0  0  0
 38 40  1  0  0  0
 99100  1  0  0  0
 99101  1  0  0  0
100102  1  0  0  0
M  END
> <minimizedAffinity>
-5.80239

$$$$



126129  0  0  0  0  0  0  0  0999 V2000
  -13.5254   -3.2444   17.1301 C   0  0  0  0  0  0  0  0  0  0  0  0
  -13.2668   -3.9177   17.8228 C   0  0  0  0  0  0  0  0  0  0  0  0
  -13.8601   -4.7021   18.0036 C   0  0  0  0  0  0  0  0  0  0  0  0
  -13.6015   -5.3754   18.6964 C   0  0  0  0  0  0  0  0  0  0  0  0
  -12.7497   -5.2643   19.2082 C   0  0  0  0  0  0  0  0  0  0  0  0
  -12.4911   -5.9376   19.9009 O   0  0  0  0  0  0  0  0  0  0  0  0
  -12.1564   -4.4799   19.0274 C   0  0  0  0  0  0  0  0  0  0  0  0
  -12.4149   -3.8066   18.3347 C   0  0  0  0  0  0  0  0  0  0  0  0
  -13.0471   -6.6726   20.0703 H   0  0  0  0  0  0  0  0  0  0  0  0
  -13.1013   -3.2703   16.2249 C   0  0  0  0  0  0  0  0  0  0  0  0
  -12.1054   -3.3019   16.1400 O   0  0  0  0  0  0  0  0  0  0  0  0
  -13.6731   -3.2646   15.4045 N   0  0  0  0  0  0  0  0  0  0  0  0
  -14.6535   -3.2334   15.4881 H   0  0  0  0  0  0  0  0  0  0  0  0
  -13.2490   -3.2904   14.4992 C   0  0  0  0  0  0  0  0  0  0  0  0
  -13.0482   -2.4380   14.0166 C   0  0  0  0  0  0  0  0  0  0  0  0
  -13.7727   -1.7651   13.8676 O   0  0  0  0  0  0  0  0  0  0  0  0
  -12.1227   -2.2584   13.6829 N   0  0  0  0  0  0  0  0  0  0  0  0
  -11.4094   -2.9209   13.8295 H   0  0  0  0  0  0  0  0  0  0  0  0
  -11.9219   -1.4060   13.2002 C   0  0  0  0  0  0  0  0  0  0  0  0
  -11.6830   -1.4254   12.2294 C   0  0  0  0  0  0  0  0  0  0  0  0
  -10.7274   -1.3391   11.9478 O   0  0  0  0  0  0  0  0  0  0  0  0
  -12.3998   -1.5311   11.5401 N   0  0  0  0  0  0  0  0  0  0  0  0
  -13.3407   -1.6160   11.8173 H   0  0  0  0  0  0  0  0  0  0  0  0
  -12.1610   -1.5506   10.5692 C   0  0  0  0  0  0  0  0  0  0  0  0
  -12.3322   -0.7492    9.9961 C   0  0  0  0  0  0  0  0  0  0  0  0
  -13.2698   -0.4419    9.8336 O   0  0  0  0  0  0  0  0  0  0  0  0
  -11.5658   -0.2552    9.5854 N   0  0  0  0  0  0  0  0  0  0  0  0
  -10.6428   -0.5579    9.7454 H   0  0  0  0  0  0  0  0  0  0  0  0
  -11.7371    0.5461    9.0123 C   0  0  0  0  0  0  0  0  0  0  0  0
  -11.6340    1.4648    9.3936 C   0  0  0  0  0  0  0  0  0  0  0  0
  -12.4189    2.0835    9.4261 O   0  0  0  0  0  0  0  0  0  0  0  0
  -10.7460    1.7647    9.7423 N   0  0  0  0  0  0  0  0  0  0  0  0
   -9.9057    1.2228    9.7539 C   0  0  0  0  0  0  0  0  0  0  0  0
   -9.1829    1.7825   10.1594 C   0  0  0  0  0  0  0  0  0  0  0  0
   -9.5766    2.6701   10.3984 C   0  0  0  0  0  0  0  0  0  0  0  0
  -10.5426    2.6591   10.1406 C   0  0  0  0  0  0  0  0  0  0  0  0
  -11.1914    3.4106   10.2601 C   0  0  0  0  0  0  0  0  0  0  0  0
  -11.6781    3.5180   11.1271 O   0  0  0  0  0  0  0  0  0  0  0  0
  -11.3536    4.0548    9.5126 O   0  0  0  0  0  0  0  0  0  0  0  0
  -11.5262    2.9144   11.8274 H   0  0  0  0  0  0  0  0  0  0  0  0
  -12.0113    0.4288    8.0577 C   0  0  0  0  0  0  0  0  0  0  0  0
  -11.3266    0.2031    7.3649 S   0  0  0  0  0  0  0  0  0  0  0  0
  -10.0222    0.0557    7.7206 H   0  0  0  0  0  0  0  0  0  0  0  0
  -11.7509   -2.3713   10.1716 C   0  0  0  0  0  0  0  0  0  0  0  0
  -12.3354   -3.1121    9.8406 C   0  0  0  0  0  0  0  0  0  0  0  0
  -12.7053   -3.8601   10.3918 C   0  0  0  0  0  0  0  0  0  0  0  0
  -13.2511   -4.4453    9.7921 N   0  0  0  0  0  0  0  0  0  0  0  0
  -13.2185   -4.0591    8.8702 C   0  0  0  0  0  0  0  0  0  0  0  0
  -12.6525   -3.2351    8.9002 N   0  0  0  0  0  0  0  0  0  0  0  0
  -12.4442   -2.6482    8.1377 H   0  0  0  0  0  0  0  0  0  0  0  0
  -11.9599   -0.5340   13.6884 C   0  0  0  0  0  0  0  0  0  0  0  0
  -11.1888   -0.2444   14.2554 C   0  0  0  0  0  0  0  0  0  0  0  0
  -11.2762    0.5574   14.8465 C   0  0  0  0  0  0  0  0  0  0  0  0
  -11.4722    1.4535   14.4480 O   0  0  0  0  0  0  0  0  0  0  0  0
  -11.1676    0.4632   15.8361 N   0  0  0  0  0  0  0  0  0  0  0  0
  -10.9747   -0.4189   16.2284 H   0  0  0  0  0  0  0  0  0  0  0  0
  -11.2536    1.2526   16.4181 H   0  0  0  0  0  0  0  0  0  0  0  0
  -13.0258   -4.1688   14.0766 C   0  0  0  0  0  0  0  0  0  0  0  0
  -13.7482   -4.7218   13.6613 C   0  0  0  0  0  0  0  0  0  0  0  0
  -13.5306   -5.6153   13.2684 C   0  0  0  0  0  0  0  0  0  0  0  0
  -14.2632   -6.2665   13.0709 C   0  0  0  0  0  0  0  0  0  0  0  0
  -14.5510   -6.4240   12.1262 N   0  0  0  0  0  0  0  0  0  0  0  0
  -14.0972   -5.9203   11.3641 H   0  0  0  0  0  0  0  0  0  0  0  0
  -15.2984   -7.0882   11.9248 H   0  0  0  0  0  0  0  0  0  0  0  0
  -13.9254   -1.5958   17.4797 C   0  0  0  0  0  0  0  0  0  0  0  0
  -12.9601   -1.3456   17.4041 O   0  0  0  0  0  0  0  0  0  0  0  0
  -14.2080   -2.5452   17.3427 N   0  0  0  0  0  0  0  0  0  0  0  0
  -15.1582   -2.7916   17.4170 H   0  0  0  0  0  0  0  0  0  0  0  0
  -14.6080   -0.8967   17.6922 C   0  0  0  0  0  0  0  0  0  0  0  0
  -15.1893   -0.7059   19.3126 C   0  0  0  0  0  0  0  0  0  0  0  0
  -15.8259   -1.4644   19.1736 O   0  0  0  0  0  0  0  0  0  0  0  0
  -14.5804   -0.4220   18.5719 N   0  0  0  0  0  0  0  0  0  0  0  0
  -13.9536    0.3248   18.7088 H   0  0  0  0  0  0  0  0  0  0  0  0
  -15.1617   -0.2312   20.1923 C   0  0  0  0  0  0  0  0  0  0  0  0
  -15.4384    1.4684   20.3787 C   0  0  0  0  0  0  0  0  0  0  0  0
  -16.4208    1.2997   20.4586 O   0  0  0  0  0  0  0  0  0  0  0  0
  -14.8089    0.7030   20.2455 N   0  0  0  0  0  0  0  0  0  0  0  0
  -13.8417    0.8690   20.1669 H   0  0  0  0  0  0  0  0  0  0  0  0
  -15.0856    2.4026   20.4320 C   0  0  0  0  0  0  0  0  0  0  0  0
  -15.6704    3.1394   20.7712 C   0  0  0  0  0  0  0  0  0  0  0  0
  -13.9590    3.3895   19.5621 C   0  0  0  0  0  0  0  0  0  0  0  0
  -14.7077    3.9816   19.2642 O   0  0  0  0  0  0  0  0  0  0  0  0
  -14.1479    2.5999   20.1460 N   0  0  0  0  0  0  0  0  0  0  0  0
  -13.4108    2.0170   20.4393 H   0  0  0  0  0  0  0  0  0  0  0  0
  -13.0212    3.5869   19.2761 C   0  0  0  0  0  0  0  0  0  0  0  0
  -12.5846    3.5520   17.6004 C   0  0  0  0  0  0  0  0  0  0  0  0
  -12.4873    2.5579   17.6464 O   0  0  0  0  0  0  0  0  0  0  0  0
  -12.8516    4.0665   18.4152 N   0  0  0  0  0  0  0  0  0  0  0  0
  -12.9474    5.0453   18.3699 H   0  0  0  0  0  0  0  0  0  0  0  0
  -12.4150    4.0317   16.7394 C   0  0  0  0  0  0  0  0  0  0  0  0
  -10.7678    4.3721   16.3261 C   0  0  0  0  0  0  0  0  0  0  0  0
  -10.7591    5.1267   16.9823 O   0  0  0  0  0  0  0  0  0  0  0  0
  -11.5958    3.8246   16.2047 N   0  0  0  0  0  0  0  0  0  0  0  0
  -11.6043    3.0817   15.5588 H   0  0  0  0  0  0  0  0  0  0  0  0
   -9.4041    3.3538   16.0047 N   0  0  0  0  0  0  0  0  0  0  0  0
   -9.9485    4.1650   15.7914 C   0  0  0  0  0  0  0  0  0  0  0  0
   -8.5685    3.1425   15.4593 H   0  0  0  0  0  0  0  0  0  0  0  0
   -9.6844    2.7376   16.7677 H   0  0  0  0  0  0  0  0  0  0  0  0
   -9.6737    4.7691   15.0434 C   0  0  0  0  0  0  0  0  0  0  0  0
   -9.2528    5.6538   15.2440 O   0  0  0  0  0  0  0  0  0  0  0  0
   -9.8198    4.4886   14.0947 C   0  0  0  0  0  0  0  0  0  0  0  0
   -9.1111    5.9259   16.1642 H   0  0  0  0  0  0  0  0  0  0  0  0
  -13.0646    4.7184   16.4132 C   0  0  0  0  0  0  0  0  0  0  0  0
  -13.5701    4.5649   15.5642 C   0  0  0  0  0  0  0  0  0  0  0  0
  -14.2818    5.2086   15.2826 C   0  0  0  0  0  0  0  0  0  0  0  0
  -15.1795    5.1854   15.7224 O   0  0  0  0  0  0  0  0  0  0  0  0
  -14.0955    5.8756   14.5611 N   0  0  0  0  0  0  0  0  0  0  0  0
  -13.2117    5.8984   14.1281 H   0  0  0  0  0  0  0  0  0  0  0  0
  -14.7961    6.5093   14.2839 H   0  0  0  0  0  0  0  0  0  0  0  0
  -12.2532    3.3047   19.8510 C   0  0  0  0  0  0  0  0  0  0  0  0
  -11.6693    3.9944   20.2791 C   0  0  0  0  0  0  0  0  0  0  0  0
  -10.7473    3.7515   20.5805 C   0  0  0  0  0  0  0  0  0  0  0  0
   -9.9543    4.0320   20.0396 O   0  0  0  0  0  0  0  0  0  0  0  0
  -10.6181    3.2281   21.4229 N   0  0  0  0  0  0  0  0  0  0  0  0
  -11.3988    2.9520   21.9554 H   0  0  0  0  0  0  0  0  0  0  0  0
   -9.7103    2.9891   21.7196 H   0  0  0  0  0  0  0  0  0  0  0  0
  -15.4869   -0.6907   21.0188 C   0  0  0  0  0  0  0  0  0  0  0  0
  -14.8316   -1.0943   21.6572 O   0  0  0  0  0  0  0  0  0  0  0  0
  -15.1471   -1.5400   22.4590 H   0  0  0  0  0  0  0  0  0  0  0  0
  -15.3183   -0.6722   17.0250 C   0  0  0  0  0  0  0  0  0  0  0  0
  -15.2580    0.1745   16.4963 C   0  0  0  0  0  0  0  0  0  0  0  0
  -15.6854    1.0470   16.7330 C   0  0  0  0  0  0  0  0  0  0  0  0
  -15.4514    1.7091   16.0210 N   0  0  0  0  0  0  0  0  0  0  0  0
  -14.8792    1.2457   15.3442 C   0  0  0  0  0  0  0  0  0  0  0  0
  -14.7598    0.2973   15.6380 N   0  0  0  0  0  0  0  0  0  0  0  0
  -14.2425   -0.3942   15.1652 H   0  0  0  0  0  0  0  0  0  0  0  0
 95 96  1  0  0  0
 95 97  1  0  0  0
 95 98  1  0  0  0
 96 91  1  0  0  0
 96 99  1  0  0  0
 91 92  2  0  0  0
 91 93  1  0  0  0
 93 90  1  0  0  0
 93 94  1  0  0  0
 90103  1  0  0  0
 90 86  1  0  0  0
103104  1  0  0  0
104105  1  0  0  0
105106  2  0  0  0
105107  1  0  0  0
107108  1  0  0  0
107109  1  0  0  0
 86 87  2  0  0  0
 86 88  1  0  0  0
 88 85  1  0  0  0
 88 89  1  0  0  0
 85110  1  0  0  0
 85 81  1  0  0  0
110111  1  0  0  0
111112  1  0  0  0
112113  2  0  0  0
112114  1  0  0  0
114115  1  0  0  0
114116  1  0  0  0
 81 82  2  0  0  0
 81 83  1  0  0  0
 83 79  1  0  0  0
 83 84  1  0  0  0
 79 80  1  0  0  0
 79 75  1  0  0  0
 75 76  2  0  0  0
 75 77  1  0  0  0
 77 74  1  0  0  0
 77 78  1  0  0  0
 74117  1  0  0  0
 74 70  1  0  0  0
117118  1  0  0  0
118119  1  0  0  0
 70 71  2  0  0  0
 70 72  1  0  0  0
 72 69  1  0  0  0
 72 73  1  0  0  0
 69120  1  0  0  0
 69 65  1  0  0  0
120121  1  0  0  0
121125  1  0  0  0
121122  2  0  0  0
122123  1  0  0  0
123124  2  0  0  0
124125  1  0  0  0
125126  1  0  0  0
 65 66  2  0  0  0
 65 67  1  0  0  0
 67  1  1  0  0  0
 67 68  1  0  0  0
  1  2  1  0  0  0
  1 10  1  0  0  0
  2  8  2  0  0  0
  2  3  1  0  0  0
  3  4  2  0  0  0
  4  5  1  0  0  0
  5  6  1  0  0  0
  5  7  2  0  0  0
  6  9  1  0  0  0
  7  8  1  0  0  0
 10 11  2  0  0  0
 10 12  1  0  0  0
 12 14  1  0  0  0
 12 13  1  0  0  0
 14 58  1  0  0  0
 14 15  1  0  0  0
 58 59  1  0  0  0
 59 60  1  0  0  0
 60 61  1  0  0  0
 61 62  1  0  0  0
 62 63  1  0  0  0
 62 64  1  0  0  0
 15 16  2  0  0  0
 15 17  1  0  0  0
 17 19  1  0  0  0
 17 18  1  0  0  0
 19 51  1  0  0  0
 19 20  1  0  0  0
 51 52  1  0  0  0
 52 53  1  0  0  0
 53 54  2  0  0  0
 53 55  1  0  0  0
 55 56  1  0  0  0
 55 57  1  0  0  0
 20 21  2  0  0  0
 20 22  1  0  0  0
 22 24  1  0  0  0
 22 23  1  0  0  0
 24 44  1  0  0  0
 24 25  1  0  0  0
 44 45  1  0  0  0
 45 49  1  0  0  0
 45 46  2  0  0  0
 46 47  1  0  0  0
 47 48  2  0  0  0
 48 49  1  0  0  0
 49 50  1  0  0  0
 25 26  2  0  0  0
 25 27  1  0  0  0
 27 29  1  0  0  0
 27 28  1  0  0  0
 29 41  1  0  0  0
 29 30  1  0  0  0
 41 42  1  0  0  0
 42 43  1  0  0  0
 30 31  2  0  0  0
 30 32  1  0  0  0
 32 36  1  0  0  0
 32 33  1  0  0  0
 33 34  1  0  0  0
 34 35  1  0  0  0
 35 36  1  0  0  0
 36 37  1  0  0  0
 37 38  1  0  0  0
 37 39  2  0  0  0
 38 40  1  0  0  0
 99100  1  0  0  0
 99101  1  0  0  0
100102  1  0  0  0
M  END
> <minimizedAffinity>
-5.79392

$$$$



126129  0  0  0  0  0  0  0  0999 V2000
  -11.1689    0.9460   12.2600 C   0  0  0  0  0  0  0  0  0  0  0  0
  -10.9723    1.2273   11.3208 C   0  0  0  0  0  0  0  0  0  0  0  0
  -11.6868    1.1746   10.6231 C   0  0  0  0  0  0  0  0  0  0  0  0
  -11.4902    1.4560    9.6838 C   0  0  0  0  0  0  0  0  0  0  0  0
  -10.5792    1.7901    9.4422 C   0  0  0  0  0  0  0  0  0  0  0  0
  -10.3826    2.0714    8.5030 O   0  0  0  0  0  0  0  0  0  0  0  0
   -9.8647    1.8428   10.1399 C   0  0  0  0  0  0  0  0  0  0  0  0
  -10.0612    1.5614   11.0791 C   0  0  0  0  0  0  0  0  0  0  0  0
  -11.0521    2.0220    7.8493 H   0  0  0  0  0  0  0  0  0  0  0  0
  -11.6323    1.5753   12.8838 C   0  0  0  0  0  0  0  0  0  0  0  0
  -12.5642    1.8795   12.6862 O   0  0  0  0  0  0  0  0  0  0  0  0
  -11.1639    1.9004   13.7053 N   0  0  0  0  0  0  0  0  0  0  0  0
  -10.2464    1.6009   13.8999 H   0  0  0  0  0  0  0  0  0  0  0  0
  -11.6273    2.5297   14.3292 C   0  0  0  0  0  0  0  0  0  0  0  0
  -11.9886    2.1953   15.1996 C   0  0  0  0  0  0  0  0  0  0  0  0
  -11.3641    1.9765   15.9492 O   0  0  0  0  0  0  0  0  0  0  0  0
  -12.9746    2.0798   15.3204 N   0  0  0  0  0  0  0  0  0  0  0  0
  -13.5895    2.2952   14.5823 H   0  0  0  0  0  0  0  0  0  0  0  0
  -13.3359    1.7454   16.1907 C   0  0  0  0  0  0  0  0  0  0  0  0
  -13.5248    2.3877   16.9335 C   0  0  0  0  0  0  0  0  0  0  0  0
  -13.8970    3.2931   16.7291 O   0  0  0  0  0  0  0  0  0  0  0  0
  -13.3415    2.1246   17.8808 N   0  0  0  0  0  0  0  0  0  0  0  0
  -12.9752    1.2333   18.0821 H   0  0  0  0  0  0  0  0  0  0  0  0
  -13.5304    2.7670   18.6236 C   0  0  0  0  0  0  0  0  0  0  0  0
  -12.8286    3.4183   18.9119 C   0  0  0  0  0  0  0  0  0  0  0  0
  -13.0941    4.3137   19.2693 O   0  0  0  0  0  0  0  0  0  0  0  0
  -11.8613    3.1743   18.8428 N   0  0  0  0  0  0  0  0  0  0  0  0
  -11.6000    2.2928   18.4909 H   0  0  0  0  0  0  0  0  0  0  0  0
  -11.1595    3.8256   19.1311 C   0  0  0  0  0  0  0  0  0  0  0  0
  -10.3731    4.0072   18.5407 C   0  0  0  0  0  0  0  0  0  0  0  0
   -9.6145    3.3566   18.5041 O   0  0  0  0  0  0  0  0  0  0  0  0
  -10.3452    4.8395   17.9869 N   0  0  0  0  0  0  0  0  0  0  0  0
  -11.0504    5.5477   17.9543 C   0  0  0  0  0  0  0  0  0  0  0  0
  -10.7482    6.2555   17.3158 C   0  0  0  0  0  0  0  0  0  0  0  0
   -9.8562    5.9847   16.9538 C   0  0  0  0  0  0  0  0  0  0  0  0
   -9.6072    5.1095   17.3686 C   0  0  0  0  0  0  0  0  0  0  0  0
   -8.7675    4.5949   17.1954 C   0  0  0  0  0  0  0  0  0  0  0  0
   -8.7386    3.9179   16.4599 O   0  0  0  0  0  0  0  0  0  0  0  0
   -7.9566    4.7571   17.7578 O   0  0  0  0  0  0  0  0  0  0  0  0
   -9.4984    3.7659   15.9330 H   0  0  0  0  0  0  0  0  0  0  0  0
  -11.2441    4.2955   20.0099 C   0  0  0  0  0  0  0  0  0  0  0  0
  -10.8288    3.9012   20.8296 S   0  0  0  0  0  0  0  0  0  0  0  0
  -10.1489    2.7261   20.7496 H   0  0  0  0  0  0  0  0  0  0  0  0
  -14.4212    2.7579   19.0780 C   0  0  0  0  0  0  0  0  0  0  0  0
  -14.6196    2.0695   19.7757 C   0  0  0  0  0  0  0  0  0  0  0  0
  -15.1513    1.2332   19.6419 C   0  0  0  0  0  0  0  0  0  0  0  0
  -15.1814    0.7434   20.5131 N   0  0  0  0  0  0  0  0  0  0  0  0
  -14.6683    1.2770   21.1856 C   0  0  0  0  0  0  0  0  0  0  0  0
  -14.3211    2.0966   20.7297 N   0  0  0  0  0  0  0  0  0  0  0  0
  -13.7803    2.8056   21.1470 H   0  0  0  0  0  0  0  0  0  0  0  0
  -13.5084    0.7687   16.3184 C   0  0  0  0  0  0  0  0  0  0  0  0
  -14.2613    0.3260   15.8314 C   0  0  0  0  0  0  0  0  0  0  0  0
  -14.4907   -0.6276   16.0261 C   0  0  0  0  0  0  0  0  0  0  0  0
  -15.0620   -0.8534   16.8152 O   0  0  0  0  0  0  0  0  0  0  0  0
  -14.1488   -1.3555   15.4317 N   0  0  0  0  0  0  0  0  0  0  0  0
  -13.5863   -1.1331   14.6549 H   0  0  0  0  0  0  0  0  0  0  0  0
  -14.3746   -2.2944   15.6234 H   0  0  0  0  0  0  0  0  0  0  0  0
  -11.7294    3.4935   14.0827 C   0  0  0  0  0  0  0  0  0  0  0  0
  -10.9222    4.0796   14.0118 C   0  0  0  0  0  0  0  0  0  0  0  0
  -11.0200    5.0327   13.7253 C   0  0  0  0  0  0  0  0  0  0  0  0
  -10.2359    5.5238   13.3459 C   0  0  0  0  0  0  0  0  0  0  0  0
  -10.2269    6.5237   13.3408 N   0  0  0  0  0  0  0  0  0  0  0  0
  -11.0176    7.0428   13.7228 H   0  0  0  0  0  0  0  0  0  0  0  0
   -9.4271    7.0246   12.9538 H   0  0  0  0  0  0  0  0  0  0  0  0
  -11.5993   -0.6102   12.8870 C   0  0  0  0  0  0  0  0  0  0  0  0
  -12.5635   -0.3451   12.8832 O   0  0  0  0  0  0  0  0  0  0  0  0
  -10.9020    0.0353   12.5754 N   0  0  0  0  0  0  0  0  0  0  0  0
   -9.9527   -0.2257   12.5792 H   0  0  0  0  0  0  0  0  0  0  0  0
  -11.3323   -1.5208   13.2024 C   0  0  0  0  0  0  0  0  0  0  0  0
  -10.3501   -1.6567   14.6225 C   0  0  0  0  0  0  0  0  0  0  0  0
   -9.5401   -1.4230   14.0847 O   0  0  0  0  0  0  0  0  0  0  0  0
  -11.2462   -1.7056   14.1814 N   0  0  0  0  0  0  0  0  0  0  0  0
  -12.0437   -1.9356   14.7109 H   0  0  0  0  0  0  0  0  0  0  0  0
  -10.2640   -1.8414   15.6015 C   0  0  0  0  0  0  0  0  0  0  0  0
  -10.8391   -3.1827   16.5344 C   0  0  0  0  0  0  0  0  0  0  0  0
  -11.6320   -2.6443   16.8197 O   0  0  0  0  0  0  0  0  0  0  0  0
  -10.1551   -2.7813   15.9253 N   0  0  0  0  0  0  0  0  0  0  0  0
   -9.3745   -3.3113   15.6444 H   0  0  0  0  0  0  0  0  0  0  0  0
  -10.7302   -4.1225   16.8582 C   0  0  0  0  0  0  0  0  0  0  0  0
  -10.3437   -4.8183   16.2528 C   0  0  0  0  0  0  0  0  0  0  0  0
  -11.6202   -5.1425   17.9386 C   0  0  0  0  0  0  0  0  0  0  0  0
  -11.9550   -5.6743   17.1608 O   0  0  0  0  0  0  0  0  0  0  0  0
  -11.0078   -4.3666   17.7873 N   0  0  0  0  0  0  0  0  0  0  0  0
  -10.6782   -3.8430   18.5531 H   0  0  0  0  0  0  0  0  0  0  0  0
  -11.8978   -5.3866   18.8679 C   0  0  0  0  0  0  0  0  0  0  0  0
  -13.3075   -4.6362   19.5384 C   0  0  0  0  0  0  0  0  0  0  0  0
  -12.7762   -3.8115   19.7323 O   0  0  0  0  0  0  0  0  0  0  0  0
  -12.8683   -5.4237   19.1062 N   0  0  0  0  0  0  0  0  0  0  0  0
  -13.3913   -6.2357   18.9153 H   0  0  0  0  0  0  0  0  0  0  0  0
  -14.2780   -4.6733   19.7768 C   0  0  0  0  0  0  0  0  0  0  0  0
  -15.4692   -5.5633   18.8887 C   0  0  0  0  0  0  0  0  0  0  0  0
  -15.6214   -4.7707   18.2983 O   0  0  0  0  0  0  0  0  0  0  0  0
  -14.7976   -5.5146   19.6279 N   0  0  0  0  0  0  0  0  0  0  0  0
  -14.6478   -6.2950   20.2092 H   0  0  0  0  0  0  0  0  0  0  0  0
  -15.5212   -7.2333   18.4321 N   0  0  0  0  0  0  0  0  0  0  0  0
  -15.9889   -6.4047   18.7398 C   0  0  0  0  0  0  0  0  0  0  0  0
  -16.0511   -8.0915   18.2803 H   0  0  0  0  0  0  0  0  0  0  0  0
  -14.5142   -7.2203   18.2700 H   0  0  0  0  0  0  0  0  0  0  0  0
  -16.9760   -6.4175   18.8987 C   0  0  0  0  0  0  0  0  0  0  0  0
  -17.3375   -6.2401   19.8141 O   0  0  0  0  0  0  0  0  0  0  0  0
  -17.6018   -6.6077   18.1423 C   0  0  0  0  0  0  0  0  0  0  0  0
  -16.7304   -6.0557   20.5479 H   0  0  0  0  0  0  0  0  0  0  0  0
  -14.7289   -3.8691   20.1640 C   0  0  0  0  0  0  0  0  0  0  0  0
  -14.9374   -3.8350   21.1414 C   0  0  0  0  0  0  0  0  0  0  0  0
  -15.6915   -3.2675   21.4723 C   0  0  0  0  0  0  0  0  0  0  0  0
  -16.6179   -3.6417   21.5140 O   0  0  0  0  0  0  0  0  0  0  0  0
  -15.5191   -2.3259   21.7615 N   0  0  0  0  0  0  0  0  0  0  0  0
  -14.6071   -1.9576   21.7205 H   0  0  0  0  0  0  0  0  0  0  0  0
  -16.2615   -1.7674   22.0872 H   0  0  0  0  0  0  0  0  0  0  0  0
  -11.2051   -5.5936   19.5586 C   0  0  0  0  0  0  0  0  0  0  0  0
  -10.9269   -6.5405   19.7198 C   0  0  0  0  0  0  0  0  0  0  0  0
  -10.1314   -6.7373   20.2928 C   0  0  0  0  0  0  0  0  0  0  0  0
   -9.9431   -6.1740   21.0974 O   0  0  0  0  0  0  0  0  0  0  0  0
   -9.5242   -7.4974   20.0614 N   0  0  0  0  0  0  0  0  0  0  0  0
   -9.7096   -8.0519   19.2693 H   0  0  0  0  0  0  0  0  0  0  0  0
   -8.7410   -7.6912   20.6257 H   0  0  0  0  0  0  0  0  0  0  0  0
  -10.2868   -1.0863   16.2567 C   0  0  0  0  0  0  0  0  0  0  0  0
   -9.5542   -0.4057   16.2610 O   0  0  0  0  0  0  0  0  0  0  0  0
   -9.5763    0.3267   16.8966 H   0  0  0  0  0  0  0  0  0  0  0  0
  -11.1515   -2.2468   12.5387 C   0  0  0  0  0  0  0  0  0  0  0  0
  -11.8518   -2.9343   12.3465 C   0  0  0  0  0  0  0  0  0  0  0  0
  -12.0332   -3.7556   12.8873 C   0  0  0  0  0  0  0  0  0  0  0  0
  -12.7871   -4.2502   12.4548 N   0  0  0  0  0  0  0  0  0  0  0  0
  -13.0717   -3.7344   11.6467 C   0  0  0  0  0  0  0  0  0  0  0  0
  -12.4936   -2.9211   11.5798 N   0  0  0  0  0  0  0  0  0  0  0  0
  -12.5470   -2.2291   10.8817 H   0  0  0  0  0  0  0  0  0  0  0  0
 95 96  1  0  0  0
 95 97  1  0  0  0
 95 98  1  0  0  0
 96 91  1  0  0  0
 96 99  1  0  0  0
 91 92  2  0  0  0
 91 93  1  0  0  0
 93 90  1  0  0  0
 93 94  1  0  0  0
 90103  1  0  0  0
 90 86  1  0  0  0
103104  1  0  0  0
104105  1  0  0  0
105106  2  0  0  0
105107  1  0  0  0
107108  1  0  0  0
107109  1  0  0  0
 86 87  2  0  0  0
 86 88  1  0  0  0
 88 85  1  0  0  0
 88 89  1  0  0  0
 85110  1  0  0  0
 85 81  1  0  0  0
110111  1  0  0  0
111112  1  0  0  0
112113  2  0  0  0
112114  1  0  0  0
114115  1  0  0  0
114116  1  0  0  0
 81 82  2  0  0  0
 81 83  1  0  0  0
 83 79  1  0  0  0
 83 84  1  0  0  0
 79 80  1  0  0  0
 79 75  1  0  0  0
 75 76  2  0  0  0
 75 77  1  0  0  0
 77 74  1  0  0  0
 77 78  1  0  0  0
 74117  1  0  0  0
 74 70  1  0  0  0
117118  1  0  0  0
118119  1  0  0  0
 70 71  2  0  0  0
 70 72  1  0  0  0
 72 69  1  0  0  0
 72 73  1  0  0  0
 69120  1  0  0  0
 69 65  1  0  0  0
120121  1  0  0  0
121125  1  0  0  0
121122  2  0  0  0
122123  1  0  0  0
123124  2  0  0  0
124125  1  0  0  0
125126  1  0  0  0
 65 66  2  0  0  0
 65 67  1  0  0  0
 67  1  1  0  0  0
 67 68  1  0  0  0
  1  2  1  0  0  0
  1 10  1  0  0  0
  2  8  2  0  0  0
  2  3  1  0  0  0
  3  4  2  0  0  0
  4  5  1  0  0  0
  5  6  1  0  0  0
  5  7  2  0  0  0
  6  9  1  0  0  0
  7  8  1  0  0  0
 10 11  2  0  0  0
 10 12  1  0  0  0
 12 14  1  0  0  0
 12 13  1  0  0  0
 14 58  1  0  0  0
 14 15  1  0  0  0
 58 59  1  0  0  0
 59 60  1  0  0  0
 60 61  1  0  0  0
 61 62  1  0  0  0
 62 63  1  0  0  0
 62 64  1  0  0  0
 15 16  2  0  0  0
 15 17  1  0  0  0
 17 19  1  0  0  0
 17 18  1  0  0  0
 19 51  1  0  0  0
 19 20  1  0  0  0
 51 52  1  0  0  0
 52 53  1  0  0  0
 53 54  2  0  0  0
 53 55  1  0  0  0
 55 56  1  0  0  0
 55 57  1  0  0  0
 20 21  2  0  0  0
 20 22  1  0  0  0
 22 24  1  0  0  0
 22 23  1  0  0  0
 24 44  1  0  0  0
 24 25  1  0  0  0
 44 45  1  0  0  0
 45 49  1  0  0  0
 45 46  2  0  0  0
 46 47  1  0  0  0
 47 48  2  0  0  0
 48 49  1  0  0  0
 49 50  1  0  0  0
 25 26  2  0  0  0
 25 27  1  0  0  0
 27 29  1  0  0  0
 27 28  1  0  0  0
 29 41  1  0  0  0
 29 30  1  0  0  0
 41 42  1  0  0  0
 42 43  1  0  0  0
 30 31  2  0  0  0
 30 32  1  0  0  0
 32 36  1  0  0  0
 32 33  1  0  0  0
 33 34  1  0  0  0
 34 35  1  0  0  0
 35 36  1  0  0  0
 36 37  1  0  0  0
 37 38  1  0  0  0
 37 39  2  0  0  0
 38 40  1  0  0  0
 99100  1  0  0  0
 99101  1  0  0  0
100102  1  0  0  0
M  END
> <minimizedAffinity>
-5.72861

$$$$



126129  0  0  0  0  0  0  0  0999 V2000
  -13.5455   -2.2079   16.4628 C   0  0  0  0  0  0  0  0  0  0  0  0
  -14.1739   -1.8345   17.1452 C   0  0  0  0  0  0  0  0  0  0  0  0
  -13.9822   -0.9499   17.5704 C   0  0  0  0  0  0  0  0  0  0  0  0
  -14.6106   -0.5765   18.2529 C   0  0  0  0  0  0  0  0  0  0  0  0
  -15.4307   -1.0877   18.5101 C   0  0  0  0  0  0  0  0  0  0  0  0
  -16.0590   -0.7143   19.1925 O   0  0  0  0  0  0  0  0  0  0  0  0
  -15.6224   -1.9723   18.0849 C   0  0  0  0  0  0  0  0  0  0  0  0
  -14.9940   -2.3457   17.4025 C   0  0  0  0  0  0  0  0  0  0  0  0
  -15.8794    0.1146   19.5909 H   0  0  0  0  0  0  0  0  0  0  0  0
  -13.3484   -1.6918   15.6293 C   0  0  0  0  0  0  0  0  0  0  0  0
  -12.7162   -0.9175   15.6584 O   0  0  0  0  0  0  0  0  0  0  0  0
  -13.7834   -1.9500   14.7667 N   0  0  0  0  0  0  0  0  0  0  0  0
  -14.4058   -2.7123   14.7381 H   0  0  0  0  0  0  0  0  0  0  0  0
  -13.5863   -1.4338   13.9331 C   0  0  0  0  0  0  0  0  0  0  0  0
  -12.8469   -1.7266   13.3268 C   0  0  0  0  0  0  0  0  0  0  0  0
  -12.5277   -2.6740   13.3489 O   0  0  0  0  0  0  0  0  0  0  0  0
  -12.4267   -1.0719   12.6985 N   0  0  0  0  0  0  0  0  0  0  0  0
  -12.7410   -0.1392   12.6767 H   0  0  0  0  0  0  0  0  0  0  0  0
  -11.6873   -1.3647   12.0922 C   0  0  0  0  0  0  0  0  0  0  0  0
  -10.8492   -0.8230   12.0281 C   0  0  0  0  0  0  0  0  0  0  0  0
   -9.9849   -1.1973   12.3640 O   0  0  0  0  0  0  0  0  0  0  0  0
  -10.8754    0.0932   11.6280 N   0  0  0  0  0  0  0  0  0  0  0  0
  -11.7263    0.4618   11.2972 H   0  0  0  0  0  0  0  0  0  0  0  0
  -10.0373    0.6349   11.5638 C   0  0  0  0  0  0  0  0  0  0  0  0
   -9.8282    1.3173   12.2643 C   0  0  0  0  0  0  0  0  0  0  0  0
   -8.8821    1.4637   12.5530 O   0  0  0  0  0  0  0  0  0  0  0  0
  -10.5653    1.8533   12.6760 N   0  0  0  0  0  0  0  0  0  0  0  0
  -11.4967    1.7091   12.3917 H   0  0  0  0  0  0  0  0  0  0  0  0
  -10.3562    2.5356   13.3764 C   0  0  0  0  0  0  0  0  0  0  0  0
  -10.3489    2.2751   14.3419 C   0  0  0  0  0  0  0  0  0  0  0  0
   -9.4870    2.0355   14.7886 O   0  0  0  0  0  0  0  0  0  0  0  0
  -11.2037    2.2542   14.8606 N   0  0  0  0  0  0  0  0  0  0  0  0
  -12.1121    2.4755   14.5058 C   0  0  0  0  0  0  0  0  0  0  0  0
  -12.7698    2.3664   15.2511 C   0  0  0  0  0  0  0  0  0  0  0  0
  -12.2680    2.0777   16.0664 C   0  0  0  0  0  0  0  0  0  0  0  0
  -11.3001    2.0083   15.8250 C   0  0  0  0  0  0  0  0  0  0  0  0
  -10.5587    1.7402   16.4402 C   0  0  0  0  0  0  0  0  0  0  0  0
  -10.1088    2.4276   17.0104 O   0  0  0  0  0  0  0  0  0  0  0  0
  -10.2671    0.7847   16.4852 O   0  0  0  0  0  0  0  0  0  0  0  0
  -10.3819    3.3229   16.9682 H   0  0  0  0  0  0  0  0  0  0  0  0
  -10.1544    3.4786   13.1115 C   0  0  0  0  0  0  0  0  0  0  0  0
  -10.7191    3.9369   12.4251 S   0  0  0  0  0  0  0  0  0  0  0  0
  -11.7615    3.2778   11.8520 H   0  0  0  0  0  0  0  0  0  0  0  0
   -9.4083    0.4943   10.7993 C   0  0  0  0  0  0  0  0  0  0  0  0
   -9.5923    0.9233    9.9150 C   0  0  0  0  0  0  0  0  0  0  0  0
  -10.2932    0.6418    9.2595 C   0  0  0  0  0  0  0  0  0  0  0  0
  -10.2419    1.2537    8.4703 N   0  0  0  0  0  0  0  0  0  0  0  0
   -9.5093    1.9135    8.6379 C   0  0  0  0  0  0  0  0  0  0  0  0
   -9.1079    1.7092    9.5308 N   0  0  0  0  0  0  0  0  0  0  0  0
   -8.3659    2.1964    9.9567 H   0  0  0  0  0  0  0  0  0  0  0  0
  -11.7860   -2.1992   11.5501 C   0  0  0  0  0  0  0  0  0  0  0  0
  -12.0386   -2.1410   10.5843 C   0  0  0  0  0  0  0  0  0  0  0  0
  -11.9812   -2.9524   10.0027 C   0  0  0  0  0  0  0  0  0  0  0  0
  -11.7376   -2.8594    9.0372 O   0  0  0  0  0  0  0  0  0  0  0  0
  -12.1673   -3.8569   10.3864 N   0  0  0  0  0  0  0  0  0  0  0  0
  -12.4072   -3.9484   11.3369 H   0  0  0  0  0  0  0  0  0  0  0  0
  -12.1108   -4.6557    9.8139 H   0  0  0  0  0  0  0  0  0  0  0  0
  -14.1286   -0.6250   13.7058 C   0  0  0  0  0  0  0  0  0  0  0  0
  -15.0928   -0.7226   13.4590 C   0  0  0  0  0  0  0  0  0  0  0  0
  -15.6685    0.0891   13.3612 C   0  0  0  0  0  0  0  0  0  0  0  0
  -16.6635   -0.0048   13.3265 C   0  0  0  0  0  0  0  0  0  0  0  0
  -17.2341    0.7911   13.1241 N   0  0  0  0  0  0  0  0  0  0  0  0
  -16.8012    1.6988   12.9531 H   0  0  0  0  0  0  0  0  0  0  0  0
  -18.2489    0.6953   13.0886 H   0  0  0  0  0  0  0  0  0  0  0  0
  -12.1373   -3.1509   16.8202 C   0  0  0  0  0  0  0  0  0  0  0  0
  -11.5914   -2.3147   16.8754 O   0  0  0  0  0  0  0  0  0  0  0  0
  -13.1143   -3.0974   16.6139 N   0  0  0  0  0  0  0  0  0  0  0  0
  -13.6517   -3.9205   16.5595 H   0  0  0  0  0  0  0  0  0  0  0  0
  -11.7061   -4.0404   16.9712 C   0  0  0  0  0  0  0  0  0  0  0  0
  -11.9518   -4.7185   18.5460 C   0  0  0  0  0  0  0  0  0  0  0  0
  -11.3189   -4.0482   18.9334 O   0  0  0  0  0  0  0  0  0  0  0  0
  -12.1454   -4.7146   17.5649 N   0  0  0  0  0  0  0  0  0  0  0  0
  -12.7685   -5.3745   17.1835 H   0  0  0  0  0  0  0  0  0  0  0  0
  -12.3910   -5.3927   19.1396 C   0  0  0  0  0  0  0  0  0  0  0  0
  -14.1005   -5.3820   19.4182 C   0  0  0  0  0  0  0  0  0  0  0  0
  -13.9794   -4.6951   20.1347 O   0  0  0  0  0  0  0  0  0  0  0  0
  -13.3063   -5.7308   18.9206 N   0  0  0  0  0  0  0  0  0  0  0  0
  -13.4254   -6.4071   18.2152 H   0  0  0  0  0  0  0  0  0  0  0  0
  -15.0157   -5.7201   19.1992 C   0  0  0  0  0  0  0  0  0  0  0  0
  -15.8190   -5.2943   19.6156 C   0  0  0  0  0  0  0  0  0  0  0  0
  -15.7093   -6.3820   17.7567 C   0  0  0  0  0  0  0  0  0  0  0  0
  -16.1788   -5.5159   17.5851 O   0  0  0  0  0  0  0  0  0  0  0  0
  -15.1278   -6.4841   18.5638 N   0  0  0  0  0  0  0  0  0  0  0  0
  -14.6656   -7.3367   18.7328 H   0  0  0  0  0  0  0  0  0  0  0  0
  -15.8214   -7.1460   17.1212 C   0  0  0  0  0  0  0  0  0  0  0  0
  -14.8699   -7.1338   15.6740 C   0  0  0  0  0  0  0  0  0  0  0  0
  -14.0705   -7.4293   16.1971 O   0  0  0  0  0  0  0  0  0  0  0  0
  -15.7453   -6.9921   16.1361 N   0  0  0  0  0  0  0  0  0  0  0  0
  -16.5323   -6.7012   15.6211 H   0  0  0  0  0  0  0  0  0  0  0  0
  -14.7938   -6.9799   14.6889 C   0  0  0  0  0  0  0  0  0  0  0  0
  -14.9639   -5.3389   14.1617 C   0  0  0  0  0  0  0  0  0  0  0  0
  -14.0493   -5.1324   14.5093 O   0  0  0  0  0  0  0  0  0  0  0  0
  -15.3361   -6.2627   14.2515 N   0  0  0  0  0  0  0  0  0  0  0  0
  -16.2366   -6.4660   13.9092 H   0  0  0  0  0  0  0  0  0  0  0  0
  -16.0931   -4.0307   14.2778 N   0  0  0  0  0  0  0  0  0  0  0  0
  -15.5063   -4.6216   13.7242 C   0  0  0  0  0  0  0  0  0  0  0  0
  -16.6464   -3.2991   13.8317 H   0  0  0  0  0  0  0  0  0  0  0  0
  -16.1384   -4.1596   15.2887 H   0  0  0  0  0  0  0  0  0  0  0  0
  -15.4619   -4.4952   12.7333 C   0  0  0  0  0  0  0  0  0  0  0  0
  -14.5745   -4.4434   12.2751 O   0  0  0  0  0  0  0  0  0  0  0  0
  -16.3048   -4.4207   12.2005 C   0  0  0  0  0  0  0  0  0  0  0  0
  -13.7569   -4.5157   12.7920 H   0  0  0  0  0  0  0  0  0  0  0  0
  -14.1753   -7.5434   14.1411 C   0  0  0  0  0  0  0  0  0  0  0  0
  -14.5431   -8.2690   13.5595 C   0  0  0  0  0  0  0  0  0  0  0  0
  -13.9227   -8.9075   13.1041 C   0  0  0  0  0  0  0  0  0  0  0  0
  -13.9877   -9.0493   12.1164 O   0  0  0  0  0  0  0  0  0  0  0  0
  -13.2372   -9.4043   13.6365 N   0  0  0  0  0  0  0  0  0  0  0  0
  -13.1733   -9.2647   14.6089 H   0  0  0  0  0  0  0  0  0  0  0  0
  -12.6265  -10.0329   13.1882 H   0  0  0  0  0  0  0  0  0  0  0  0
  -16.0095   -8.0637   17.4709 C   0  0  0  0  0  0  0  0  0  0  0  0
  -16.8846   -8.5049   17.2721 C   0  0  0  0  0  0  0  0  0  0  0  0
  -16.9849   -9.4927   17.3906 C   0  0  0  0  0  0  0  0  0  0  0  0
  -16.2298  -10.1040   17.1536 O   0  0  0  0  0  0  0  0  0  0  0  0
  -17.8404   -9.8694   17.7461 N   0  0  0  0  0  0  0  0  0  0  0  0
  -18.5838   -9.2676   17.9795 H   0  0  0  0  0  0  0  0  0  0  0  0
  -17.9391  -10.8420   17.8628 H   0  0  0  0  0  0  0  0  0  0  0  0
  -11.9150   -5.7288   19.9523 C   0  0  0  0  0  0  0  0  0  0  0  0
  -11.3846   -6.5753   19.9068 O   0  0  0  0  0  0  0  0  0  0  0  0
  -10.9229   -6.9013   20.6951 H   0  0  0  0  0  0  0  0  0  0  0  0
  -10.8356   -4.2556   16.5286 C   0  0  0  0  0  0  0  0  0  0  0  0
  -10.8196   -4.8277   15.7086 C   0  0  0  0  0  0  0  0  0  0  0  0
  -10.9193   -5.8224   15.6838 C   0  0  0  0  0  0  0  0  0  0  0  0
  -10.8624   -6.1151   14.7292 N   0  0  0  0  0  0  0  0  0  0  0  0
  -10.7276   -5.3011   14.1640 C   0  0  0  0  0  0  0  0  0  0  0  0
  -10.7011   -4.5056   14.7694 N   0  0  0  0  0  0  0  0  0  0  0  0
  -10.5797   -3.5694   14.4897 H   0  0  0  0  0  0  0  0  0  0  0  0
 95 96  1  0  0  0
 95 97  1  0  0  0
 95 98  1  0  0  0
 96 91  1  0  0  0
 96 99  1  0  0  0
 91 92  2  0  0  0
 91 93  1  0  0  0
 93 90  1  0  0  0
 93 94  1  0  0  0
 90103  1  0  0  0
 90 86  1  0  0  0
103104  1  0  0  0
104105  1  0  0  0
105106  2  0  0  0
105107  1  0  0  0
107108  1  0  0  0
107109  1  0  0  0
 86 87  2  0  0  0
 86 88  1  0  0  0
 88 85  1  0  0  0
 88 89  1  0  0  0
 85110  1  0  0  0
 85 81  1  0  0  0
110111  1  0  0  0
111112  1  0  0  0
112113  2  0  0  0
112114  1  0  0  0
114115  1  0  0  0
114116  1  0  0  0
 81 82  2  0  0  0
 81 83  1  0  0  0
 83 79  1  0  0  0
 83 84  1  0  0  0
 79 80  1  0  0  0
 79 75  1  0  0  0
 75 76  2  0  0  0
 75 77  1  0  0  0
 77 74  1  0  0  0
 77 78  1  0  0  0
 74117  1  0  0  0
 74 70  1  0  0  0
117118  1  0  0  0
118119  1  0  0  0
 70 71  2  0  0  0
 70 72  1  0  0  0
 72 69  1  0  0  0
 72 73  1  0  0  0
 69120  1  0  0  0
 69 65  1  0  0  0
120121  1  0  0  0
121125  1  0  0  0
121122  2  0  0  0
122123  1  0  0  0
123124  2  0  0  0
124125  1  0  0  0
125126  1  0  0  0
 65 66  2  0  0  0
 65 67  1  0  0  0
 67  1  1  0  0  0
 67 68  1  0  0  0
  1  2  1  0  0  0
  1 10  1  0  0  0
  2  8  2  0  0  0
  2  3  1  0  0  0
  3  4  2  0  0  0
  4  5  1  0  0  0
  5  6  1  0  0  0
  5  7  2  0  0  0
  6  9  1  0  0  0
  7  8  1  0  0  0
 10 11  2  0  0  0
 10 12  1  0  0  0
 12 14  1  0  0  0
 12 13  1  0  0  0
 14 58  1  0  0  0
 14 15  1  0  0  0
 58 59  1  0  0  0
 59 60  1  0  0  0
 60 61  1  0  0  0
 61 62  1  0  0  0
 62 63  1  0  0  0
 62 64  1  0  0  0
 15 16  2  0  0  0
 15 17  1  0  0  0
 17 19  1  0  0  0
 17 18  1  0  0  0
 19 51  1  0  0  0
 19 20  1  0  0  0
 51 52  1  0  0  0
 52 53  1  0  0  0
 53 54  2  0  0  0
 53 55  1  0  0  0
 55 56  1  0  0  0
 55 57  1  0  0  0
 20 21  2  0  0  0
 20 22  1  0  0  0
 22 24  1  0  0  0
 22 23  1  0  0  0
 24 44  1  0  0  0
 24 25  1  0  0  0
 44 45  1  0  0  0
 45 49  1  0  0  0
 45 46  2  0  0  0
 46 47  1  0  0  0
 47 48  2  0  0  0
 48 49  1  0  0  0
 49 50  1  0  0  0
 25 26  2  0  0  0
 25 27  1  0  0  0
 27 29  1  0  0  0
 27 28  1  0  0  0
 29 41  1  0  0  0
 29 30  1  0  0  0
 41 42  1  0  0  0
 42 43  1  0  0  0
 30 31  2  0  0  0
 30 32  1  0  0  0
 32 36  1  0  0  0
 32 33  1  0  0  0
 33 34  1  0  0  0
 34 35  1  0  0  0
 35 36  1  0  0  0
 36 37  1  0  0  0
 37 38  1  0  0  0
 37 39  2  0  0  0
 38 40  1  0  0  0
 99100  1  0  0  0
 99101  1  0  0  0
100102  1  0  0  0
M  END
> <minimizedAffinity>
-5.70692

$$$$



126129  0  0  0  0  0  0  0  0999 V2000
  -12.4530   -4.7853   17.6187 C   0  0  0  0  0  0  0  0  0  0  0  0
  -11.5623   -4.3482   17.7434 C   0  0  0  0  0  0  0  0  0  0  0  0
  -10.8859   -4.7573   18.3559 C   0  0  0  0  0  0  0  0  0  0  0  0
   -9.9952   -4.3201   18.4805 C   0  0  0  0  0  0  0  0  0  0  0  0
   -9.7809   -3.4738   17.9928 C   0  0  0  0  0  0  0  0  0  0  0  0
   -8.8902   -3.0367   18.1175 O   0  0  0  0  0  0  0  0  0  0  0  0
  -10.4574   -3.0647   17.3804 C   0  0  0  0  0  0  0  0  0  0  0  0
  -11.3480   -3.5018   17.2557 C   0  0  0  0  0  0  0  0  0  0  0  0
   -8.2564   -3.4200   18.6913 H   0  0  0  0  0  0  0  0  0  0  0  0
  -12.5305   -5.6123   17.0619 C   0  0  0  0  0  0  0  0  0  0  0  0
  -12.0938   -6.4602   17.3624 O   0  0  0  0  0  0  0  0  0  0  0  0
  -13.0447   -5.5913   16.2045 N   0  0  0  0  0  0  0  0  0  0  0  0
  -13.4746   -4.7565   15.9086 H   0  0  0  0  0  0  0  0  0  0  0  0
  -13.1222   -6.4183   15.6475 C   0  0  0  0  0  0  0  0  0  0  0  0
  -14.0013   -6.8886   15.5703 C   0  0  0  0  0  0  0  0  0  0  0  0
  -14.7625   -6.4502   15.0924 O   0  0  0  0  0  0  0  0  0  0  0  0
  -14.1193   -7.7972   15.9709 N   0  0  0  0  0  0  0  0  0  0  0  0
  -13.3698   -8.2287   16.4414 H   0  0  0  0  0  0  0  0  0  0  0  0
  -14.9984   -8.2674   15.8937 C   0  0  0  0  0  0  0  0  0  0  0  0
  -15.1011   -9.0346   15.2606 C   0  0  0  0  0  0  0  0  0  0  0  0
  -14.5067   -9.8344   15.3435 O   0  0  0  0  0  0  0  0  0  0  0  0
  -15.7983   -9.0019   14.5443 N   0  0  0  0  0  0  0  0  0  0  0  0
  -16.3836   -8.2145   14.4626 H   0  0  0  0  0  0  0  0  0  0  0  0
  -15.9011   -9.7691   13.9112 C   0  0  0  0  0  0  0  0  0  0  0  0
  -16.5360  -10.5116   14.1243 C   0  0  0  0  0  0  0  0  0  0  0  0
  -17.5186  -10.3316   14.1702 O   0  0  0  0  0  0  0  0  0  0  0  0
  -16.1884  -11.4342   14.2915 N   0  0  0  0  0  0  0  0  0  0  0  0
  -15.2211  -11.6115   14.2463 H   0  0  0  0  0  0  0  0  0  0  0  0
  -16.8234  -12.1768   14.5046 C   0  0  0  0  0  0  0  0  0  0  0  0
  -16.9743  -12.9111   13.8428 C   0  0  0  0  0  0  0  0  0  0  0  0
  -17.9003  -13.1164   13.5263 O   0  0  0  0  0  0  0  0  0  0  0  0
  -16.1990  -13.4400   13.4974 N   0  0  0  0  0  0  0  0  0  0  0  0
  -15.2403  -13.3120   13.7514 C   0  0  0  0  0  0  0  0  0  0  0  0
  -14.6952  -13.9827   13.2484 C   0  0  0  0  0  0  0  0  0  0  0  0
  -15.3170  -14.5252   12.6835 C   0  0  0  0  0  0  0  0  0  0  0  0
  -16.2464  -14.1898   12.8374 C   0  0  0  0  0  0  0  0  0  0  0  0
  -17.0773  -14.5423   12.4070 C   0  0  0  0  0  0  0  0  0  0  0  0
  -17.5769  -15.2987   12.8291 O   0  0  0  0  0  0  0  0  0  0  0  0
  -17.4087  -14.1383   11.5543 O   0  0  0  0  0  0  0  0  0  0  0  0
  -17.2664  -15.6772   13.6280 H   0  0  0  0  0  0  0  0  0  0  0  0
  -17.3075  -12.1851   15.3797 C   0  0  0  0  0  0  0  0  0  0  0  0
  -16.8406  -12.4988   16.2064 S   0  0  0  0  0  0  0  0  0  0  0  0
  -15.5473  -12.9142   16.1409 H   0  0  0  0  0  0  0  0  0  0  0  0
  -15.3688   -9.7937   13.0650 C   0  0  0  0  0  0  0  0  0  0  0  0
  -15.5807   -9.1583   12.3224 C   0  0  0  0  0  0  0  0  0  0  0  0
  -15.0879   -8.3137   12.1129 C   0  0  0  0  0  0  0  0  0  0  0  0
  -15.5252   -7.8894   11.3200 N   0  0  0  0  0  0  0  0  0  0  0  0
  -16.2882   -8.4717   11.0393 C   0  0  0  0  0  0  0  0  0  0  0  0
  -16.3224   -9.2560   11.6589 N   0  0  0  0  0  0  0  0  0  0  0  0
  -16.9724   -9.9945   11.6220 H   0  0  0  0  0  0  0  0  0  0  0  0
  -15.7748   -7.9705   16.4496 C   0  0  0  0  0  0  0  0  0  0  0  0
  -16.0358   -8.4910   17.2625 C   0  0  0  0  0  0  0  0  0  0  0  0
  -16.9322   -8.3471   17.6819 C   0  0  0  0  0  0  0  0  0  0  0  0
  -17.7638   -8.4811   17.1428 O   0  0  0  0  0  0  0  0  0  0  0  0
  -16.9970   -8.0694   18.6403 N   0  0  0  0  0  0  0  0  0  0  0  0
  -16.1782   -7.9376   19.1710 H   0  0  0  0  0  0  0  0  0  0  0  0
  -17.8794   -7.9277   19.0532 H   0  0  0  0  0  0  0  0  0  0  0  0
  -12.3205   -6.7750   15.1679 C   0  0  0  0  0  0  0  0  0  0  0  0
  -11.9230   -6.2611   14.4076 C   0  0  0  0  0  0  0  0  0  0  0  0
  -11.1021   -6.6014   13.9491 C   0  0  0  0  0  0  0  0  0  0  0  0
  -10.2374   -6.1074   14.0401 C   0  0  0  0  0  0  0  0  0  0  0  0
  -10.2376   -5.1451   14.3122 N   0  0  0  0  0  0  0  0  0  0  0  0
  -11.1197   -4.6675   14.4971 H   0  0  0  0  0  0  0  0  0  0  0  0
   -9.3556   -4.6413   14.4051 H   0  0  0  0  0  0  0  0  0  0  0  0
  -13.5734   -4.7380   18.9388 C   0  0  0  0  0  0  0  0  0  0  0  0
  -13.0673   -5.4704   19.3946 O   0  0  0  0  0  0  0  0  0  0  0  0
  -13.2662   -4.3955   18.0509 N   0  0  0  0  0  0  0  0  0  0  0  0
  -13.7643   -3.6746   17.6022 H   0  0  0  0  0  0  0  0  0  0  0  0
  -14.3866   -4.3482   19.3710 C   0  0  0  0  0  0  0  0  0  0  0  0
  -15.9359   -4.5518   18.6239 C   0  0  0  0  0  0  0  0  0  0  0  0
  -15.9993   -5.4735   19.0066 O   0  0  0  0  0  0  0  0  0  0  0  0
  -15.1295   -3.9892   18.8061 N   0  0  0  0  0  0  0  0  0  0  0  0
  -15.0670   -3.0818   18.4293 H   0  0  0  0  0  0  0  0  0  0  0  0
  -16.6789   -4.1928   18.0591 C   0  0  0  0  0  0  0  0  0  0  0  0
  -16.7307   -4.0181   16.3366 C   0  0  0  0  0  0  0  0  0  0  0  0
  -17.1988   -4.8985   16.2614 O   0  0  0  0  0  0  0  0  0  0  0  0
  -16.4707   -3.6652   17.2354 N   0  0  0  0  0  0  0  0  0  0  0  0
  -16.0099   -2.7984   17.3095 H   0  0  0  0  0  0  0  0  0  0  0  0
  -16.5225   -3.4905   15.5130 C   0  0  0  0  0  0  0  0  0  0  0  0
  -17.1848   -3.4494   14.7649 C   0  0  0  0  0  0  0  0  0  0  0  0
  -15.1459   -3.0158   14.5752 C   0  0  0  0  0  0  0  0  0  0  0  0
  -15.5101   -3.5141   13.7884 O   0  0  0  0  0  0  0  0  0  0  0  0
  -15.6521   -3.0040   15.4375 N   0  0  0  0  0  0  0  0  0  0  0  0
  -15.2936   -2.5135   16.2122 H   0  0  0  0  0  0  0  0  0  0  0  0
  -14.2755   -2.5293   14.4997 C   0  0  0  0  0  0  0  0  0  0  0  0
  -14.0633   -1.0349   15.3493 C   0  0  0  0  0  0  0  0  0  0  0  0
  -14.5688   -0.5554   14.6320 O   0  0  0  0  0  0  0  0  0  0  0  0
  -13.9167   -2.0219   15.2831 N   0  0  0  0  0  0  0  0  0  0  0  0
  -13.4191   -2.4940   15.9893 H   0  0  0  0  0  0  0  0  0  0  0  0
  -13.7046   -0.5275   16.1328 C   0  0  0  0  0  0  0  0  0  0  0  0
  -14.5773   -0.5392   17.6288 C   0  0  0  0  0  0  0  0  0  0  0  0
  -14.1927   -1.4364   17.8461 O   0  0  0  0  0  0  0  0  0  0  0  0
  -14.3332   -0.0848   16.7721 N   0  0  0  0  0  0  0  0  0  0  0  0
  -14.7118    0.7985   16.5581 H   0  0  0  0  0  0  0  0  0  0  0  0
  -14.8979    0.6834   18.8131 N   0  0  0  0  0  0  0  0  0  0  0  0
  -15.2060   -0.0965   18.2682 C   0  0  0  0  0  0  0  0  0  0  0  0
  -15.5391    1.1350   19.4652 H   0  0  0  0  0  0  0  0  0  0  0  0
  -13.9424    1.0272   18.7167 H   0  0  0  0  0  0  0  0  0  0  0  0
  -16.1427   -0.4335   18.3627 C   0  0  0  0  0  0  0  0  0  0  0  0
  -16.6693   -0.6812   17.5495 O   0  0  0  0  0  0  0  0  0  0  0  0
  -16.5527   -0.5229   19.2703 C   0  0  0  0  0  0  0  0  0  0  0  0
  -16.2715   -0.5945   16.6690 H   0  0  0  0  0  0  0  0  0  0  0  0
  -12.7171   -0.4628   16.2768 C   0  0  0  0  0  0  0  0  0  0  0  0
  -12.1986    0.2828   15.8583 C   0  0  0  0  0  0  0  0  0  0  0  0
  -11.1988    0.2633   15.8675 C   0  0  0  0  0  0  0  0  0  0  0  0
  -10.6971    0.6937   16.6178 O   0  0  0  0  0  0  0  0  0  0  0  0
  -10.7007   -0.1867   15.1262 N   0  0  0  0  0  0  0  0  0  0  0  0
  -11.1946   -0.6104   14.3875 H   0  0  0  0  0  0  0  0  0  0  0  0
   -9.7164   -0.2059   15.1353 H   0  0  0  0  0  0  0  0  0  0  0  0
  -13.7638   -2.5502   13.6408 C   0  0  0  0  0  0  0  0  0  0  0  0
  -12.8854   -3.0257   13.5935 C   0  0  0  0  0  0  0  0  0  0  0  0
  -12.2499   -2.8289   12.8469 C   0  0  0  0  0  0  0  0  0  0  0  0
  -11.7505   -1.9627   12.8306 O   0  0  0  0  0  0  0  0  0  0  0  0
  -12.1138   -3.4983   12.1165 N   0  0  0  0  0  0  0  0  0  0  0  0
  -12.6055   -4.3511   12.1326 H   0  0  0  0  0  0  0  0  0  0  0  0
  -11.4881   -3.3046   11.3815 H   0  0  0  0  0  0  0  0  0  0  0  0
  -17.6300   -4.3613   18.3178 C   0  0  0  0  0  0  0  0  0  0  0  0
  -18.0677   -3.7909   19.0127 O   0  0  0  0  0  0  0  0  0  0  0  0
  -18.9903   -3.9544   19.2637 H   0  0  0  0  0  0  0  0  0  0  0  0
  -14.4568   -4.3175   20.3681 C   0  0  0  0  0  0  0  0  0  0  0  0
  -14.4394   -3.4380   20.8437 C   0  0  0  0  0  0  0  0  0  0  0  0
  -15.1167   -3.1133   21.5038 C   0  0  0  0  0  0  0  0  0  0  0  0
  -14.8376   -2.2034   21.8108 N   0  0  0  0  0  0  0  0  0  0  0  0
  -13.9877   -1.9658   21.3403 C   0  0  0  0  0  0  0  0  0  0  0  0
  -13.7417   -2.7289   20.7427 N   0  0  0  0  0  0  0  0  0  0  0  0
  -12.9512   -2.7740   20.1575 H   0  0  0  0  0  0  0  0  0  0  0  0
 95 96  1  0  0  0
 95 97  1  0  0  0
 95 98  1  0  0  0
 96 91  1  0  0  0
 96 99  1  0  0  0
 91 92  2  0  0  0
 91 93  1  0  0  0
 93 90  1  0  0  0
 93 94  1  0  0  0
 90103  1  0  0  0
 90 86  1  0  0  0
103104  1  0  0  0
104105  1  0  0  0
105106  2  0  0  0
105107  1  0  0  0
107108  1  0  0  0
107109  1  0  0  0
 86 87  2  0  0  0
 86 88  1  0  0  0
 88 85  1  0  0  0
 88 89  1  0  0  0
 85110  1  0  0  0
 85 81  1  0  0  0
110111  1  0  0  0
111112  1  0  0  0
112113  2  0  0  0
112114  1  0  0  0
114115  1  0  0  0
114116  1  0  0  0
 81 82  2  0  0  0
 81 83  1  0  0  0
 83 79  1  0  0  0
 83 84  1  0  0  0
 79 80  1  0  0  0
 79 75  1  0  0  0
 75 76  2  0  0  0
 75 77  1  0  0  0
 77 74  1  0  0  0
 77 78  1  0  0  0
 74117  1  0  0  0
 74 70  1  0  0  0
117118  1  0  0  0
118119  1  0  0  0
 70 71  2  0  0  0
 70 72  1  0  0  0
 72 69  1  0  0  0
 72 73  1  0  0  0
 69120  1  0  0  0
 69 65  1  0  0  0
120121  1  0  0  0
121125  1  0  0  0
121122  2  0  0  0
122123  1  0  0  0
123124  2  0  0  0
124125  1  0  0  0
125126  1  0  0  0
 65 66  2  0  0  0
 65 67  1  0  0  0
 67  1  1  0  0  0
 67 68  1  0  0  0
  1  2  1  0  0  0
  1 10  1  0  0  0
  2  8  2  0  0  0
  2  3  1  0  0  0
  3  4  2  0  0  0
  4  5  1  0  0  0
  5  6  1  0  0  0
  5  7  2  0  0  0
  6  9  1  0  0  0
  7  8  1  0  0  0
 10 11  2  0  0  0
 10 12  1  0  0  0
 12 14  1  0  0  0
 12 13  1  0  0  0
 14 58  1  0  0  0
 14 15  1  0  0  0
 58 59  1  0  0  0
 59 60  1  0  0  0
 60 61  1  0  0  0
 61 62  1  0  0  0
 62 63  1  0  0  0
 62 64  1  0  0  0
 15 16  2  0  0  0
 15 17  1  0  0  0
 17 19  1  0  0  0
 17 18  1  0  0  0
 19 51  1  0  0  0
 19 20  1  0  0  0
 51 52  1  0  0  0
 52 53  1  0  0  0
 53 54  2  0  0  0
 53 55  1  0  0  0
 55 56  1  0  0  0
 55 57  1  0  0  0
 20 21  2  0  0  0
 20 22  1  0  0  0
 22 24  1  0  0  0
 22 23  1  0  0  0
 24 44  1  0  0  0
 24 25  1  0  0  0
 44 45  1  0  0  0
 45 49  1  0  0  0
 45 46  2  0  0  0
 46 47  1  0  0  0
 47 48  2  0  0  0
 48 49  1  0  0  0
 49 50  1  0  0  0
 25 26  2  0  0  0
 25 27  1  0  0  0
 27 29  1  0  0  0
 27 28  1  0  0  0
 29 41  1  0  0  0
 29 30  1  0  0  0
 41 42  1  0  0  0
 42 43  1  0  0  0
 30 31  2  0  0  0
 30 32  1  0  0  0
 32 36  1  0  0  0
 32 33  1  0  0  0
 33 34  1  0  0  0
 34 35  1  0  0  0
 35 36  1  0  0  0
 36 37  1  0  0  0
 37 38  1  0  0  0
 37 39  2  0  0  0
 38 40  1  0  0  0
 99100  1  0  0  0
 99101  1  0  0  0
100102  1  0  0  0
M  END
> <minimizedAffinity>
-5.68733

$$$$



126129  0  0  0  0  0  0  0  0999 V2000
  -12.2385   -5.1682   18.3669 C   0  0  0  0  0  0  0  0  0  0  0  0
  -11.4033   -5.3290   18.8928 C   0  0  0  0  0  0  0  0  0  0  0  0
  -11.3778   -6.0536   19.5815 C   0  0  0  0  0  0  0  0  0  0  0  0
  -10.5424   -6.2144   20.1073 C   0  0  0  0  0  0  0  0  0  0  0  0
   -9.7327   -5.6507   19.9444 C   0  0  0  0  0  0  0  0  0  0  0  0
   -8.8975   -5.8115   20.4702 O   0  0  0  0  0  0  0  0  0  0  0  0
   -9.7583   -4.9261   19.2557 C   0  0  0  0  0  0  0  0  0  0  0  0
  -10.5935   -4.7652   18.7299 C   0  0  0  0  0  0  0  0  0  0  0  0
   -8.8736   -6.4904   21.1155 H   0  0  0  0  0  0  0  0  0  0  0  0
  -12.2763   -5.4186   17.3996 C   0  0  0  0  0  0  0  0  0  0  0  0
  -11.4760   -5.2815   16.8159 O   0  0  0  0  0  0  0  0  0  0  0  0
  -13.1145   -5.8061   17.0158 N   0  0  0  0  0  0  0  0  0  0  0  0
  -13.9025   -5.9410   17.5904 H   0  0  0  0  0  0  0  0  0  0  0  0
  -13.1524   -6.0565   16.0483 C   0  0  0  0  0  0  0  0  0  0  0  0
  -13.4773   -5.3946   15.3728 C   0  0  0  0  0  0  0  0  0  0  0  0
  -14.3861   -4.9885   15.4677 O   0  0  0  0  0  0  0  0  0  0  0  0
  -12.8933   -5.1388   14.6025 N   0  0  0  0  0  0  0  0  0  0  0  0
  -11.9985   -5.5386   14.5091 H   0  0  0  0  0  0  0  0  0  0  0  0
  -13.2182   -4.4769   13.9270 C   0  0  0  0  0  0  0  0  0  0  0  0
  -12.7726   -3.5853   13.8461 C   0  0  0  0  0  0  0  0  0  0  0  0
  -11.8910   -3.5073   13.3806 O   0  0  0  0  0  0  0  0  0  0  0  0
  -13.2086   -2.7717   14.2309 N   0  0  0  0  0  0  0  0  0  0  0  0
  -14.0765   -2.8485   14.6893 H   0  0  0  0  0  0  0  0  0  0  0  0
  -12.7630   -1.8801   14.1501 C   0  0  0  0  0  0  0  0  0  0  0  0
  -12.1851   -1.5409   14.8923 C   0  0  0  0  0  0  0  0  0  0  0  0
  -12.5678   -1.4188   15.8081 O   0  0  0  0  0  0  0  0  0  0  0  0
  -11.2245   -1.3239   14.7188 N   0  0  0  0  0  0  0  0  0  0  0  0
  -10.8478   -1.4442   13.8173 H   0  0  0  0  0  0  0  0  0  0  0  0
  -10.6465   -0.9847   15.4611 C   0  0  0  0  0  0  0  0  0  0  0  0
  -10.3468   -0.0307   15.4653 C   0  0  0  0  0  0  0  0  0  0  0  0
  -10.5885    0.5660   16.2305 O   0  0  0  0  0  0  0  0  0  0  0  0
   -9.8053    0.3267   14.7042 N   0  0  0  0  0  0  0  0  0  0  0  0
   -9.5141   -0.1876   13.8976 C   0  0  0  0  0  0  0  0  0  0  0  0
   -8.9888    0.4289   13.3112 C   0  0  0  0  0  0  0  0  0  0  0  0
   -8.9553    1.3242   13.7554 C   0  0  0  0  0  0  0  0  0  0  0  0
   -9.4599    1.2610   14.6164 C   0  0  0  0  0  0  0  0  0  0  0  0
   -9.5954    2.0020   15.2740 C   0  0  0  0  0  0  0  0  0  0  0  0
   -9.0895    2.0036   16.1367 O   0  0  0  0  0  0  0  0  0  0  0  0
  -10.2367    2.7415   15.0691 O   0  0  0  0  0  0  0  0  0  0  0  0
   -8.4887    1.3108   16.3287 H   0  0  0  0  0  0  0  0  0  0  0  0
  -10.3683   -1.5995   16.1991 C   0  0  0  0  0  0  0  0  0  0  0  0
   -9.6727   -2.2982   16.0324 S   0  0  0  0  0  0  0  0  0  0  0  0
   -9.1049   -2.4124   14.8019 H   0  0  0  0  0  0  0  0  0  0  0  0
  -12.8954   -1.3278   13.3271 C   0  0  0  0  0  0  0  0  0  0  0  0
  -13.8047   -0.9795   13.0995 C   0  0  0  0  0  0  0  0  0  0  0  0
  -14.2323   -0.9988   12.1957 C   0  0  0  0  0  0  0  0  0  0  0  0
  -15.1380   -0.5821   12.2734 N   0  0  0  0  0  0  0  0  0  0  0  0
  -15.2702   -0.3052   13.2252 C   0  0  0  0  0  0  0  0  0  0  0  0
  -14.4461   -0.5508   13.7358 N   0  0  0  0  0  0  0  0  0  0  0  0
  -14.2932   -0.3975   14.6962 H   0  0  0  0  0  0  0  0  0  0  0  0
  -13.9886   -4.7066   13.3323 C   0  0  0  0  0  0  0  0  0  0  0  0
  -13.8269   -4.9498   12.3759 C   0  0  0  0  0  0  0  0  0  0  0  0
  -14.5460   -5.3989   11.8457 C   0  0  0  0  0  0  0  0  0  0  0  0
  -14.6603   -6.3911   11.8981 O   0  0  0  0  0  0  0  0  0  0  0  0
  -15.1509   -4.8560   11.2632 N   0  0  0  0  0  0  0  0  0  0  0  0
  -15.0383   -3.8793   11.2116 H   0  0  0  0  0  0  0  0  0  0  0  0
  -15.8589   -5.2982   10.7412 H   0  0  0  0  0  0  0  0  0  0  0  0
  -12.8653   -6.9689   15.7565 C   0  0  0  0  0  0  0  0  0  0  0  0
  -13.5103   -7.7322   15.7952 C   0  0  0  0  0  0  0  0  0  0  0  0
  -13.2741   -8.6081   15.3744 C   0  0  0  0  0  0  0  0  0  0  0  0
  -13.9242   -9.3675   15.4020 C   0  0  0  0  0  0  0  0  0  0  0  0
  -13.9960   -9.9926   14.6249 N   0  0  0  0  0  0  0  0  0  0  0  0
  -13.4062   -9.8557   13.8040 H   0  0  0  0  0  0  0  0  0  0  0  0
  -14.6591  -10.7672   14.6530 H   0  0  0  0  0  0  0  0  0  0  0  0
  -13.1862   -3.7700   18.7504 C   0  0  0  0  0  0  0  0  0  0  0  0
  -12.5390   -3.1943   18.2506 O   0  0  0  0  0  0  0  0  0  0  0  0
  -13.0360   -4.7569   18.8085 N   0  0  0  0  0  0  0  0  0  0  0  0
  -13.6731   -5.3237   19.3005 H   0  0  0  0  0  0  0  0  0  0  0  0
  -13.9836   -3.3588   19.1919 C   0  0  0  0  0  0  0  0  0  0  0  0
  -15.3479   -2.9089   18.2242 C   0  0  0  0  0  0  0  0  0  0  0  0
  -15.6526   -3.8612   18.2111 O   0  0  0  0  0  0  0  0  0  0  0  0
  -14.5134   -2.6577   18.7147 N   0  0  0  0  0  0  0  0  0  0  0  0
  -14.2133   -1.7201   18.7276 H   0  0  0  0  0  0  0  0  0  0  0  0
  -15.8776   -2.2078   17.7470 C   0  0  0  0  0  0  0  0  0  0  0  0
  -16.0554   -0.5244   18.1140 C   0  0  0  0  0  0  0  0  0  0  0  0
  -15.3466   -0.3035   17.4441 O   0  0  0  0  0  0  0  0  0  0  0  0
  -16.3209   -1.4766   18.2655 N   0  0  0  0  0  0  0  0  0  0  0  0
  -17.0186   -1.6941   18.9250 H   0  0  0  0  0  0  0  0  0  0  0  0
  -16.4987    0.2068   18.6325 C   0  0  0  0  0  0  0  0  0  0  0  0
  -17.3546    0.0277   19.1175 C   0  0  0  0  0  0  0  0  0  0  0  0
  -15.7626    1.4876   19.5367 C   0  0  0  0  0  0  0  0  0  0  0  0
  -15.8519    0.9479   20.3738 O   0  0  0  0  0  0  0  0  0  0  0  0
  -16.0860    1.1170   18.6660 N   0  0  0  0  0  0  0  0  0  0  0  0
  -15.9980    1.6483   17.8419 H   0  0  0  0  0  0  0  0  0  0  0  0
  -15.3498    2.3979   19.5703 C   0  0  0  0  0  0  0  0  0  0  0  0
  -13.8162    2.7502   18.8465 C   0  0  0  0  0  0  0  0  0  0  0  0
  -13.3528    2.4321   19.6736 O   0  0  0  0  0  0  0  0  0  0  0  0
  -14.8147    2.7331   18.7949 N   0  0  0  0  0  0  0  0  0  0  0  0
  -15.2709    3.0463   17.9806 H   0  0  0  0  0  0  0  0  0  0  0  0
  -13.2811    3.0854   18.0711 C   0  0  0  0  0  0  0  0  0  0  0  0
  -13.6573    2.3855   16.5321 C   0  0  0  0  0  0  0  0  0  0  0  0
  -13.1918    1.5425   16.8017 O   0  0  0  0  0  0  0  0  0  0  0  0
  -13.7019    3.1570   17.1668 N   0  0  0  0  0  0  0  0  0  0  0  0
  -14.1601    3.9870   16.9014 H   0  0  0  0  0  0  0  0  0  0  0  0
  -15.0504    2.2542   15.5112 N   0  0  0  0  0  0  0  0  0  0  0  0
  -14.0781    2.4571   15.6277 C   0  0  0  0  0  0  0  0  0  0  0  0
  -15.4796    2.3272   14.5889 H   0  0  0  0  0  0  0  0  0  0  0  0
  -15.6128    1.9743   16.3149 H   0  0  0  0  0  0  0  0  0  0  0  0
  -13.5267    2.7315   14.8400 C   0  0  0  0  0  0  0  0  0  0  0  0
  -12.8661    2.0930   14.4451 O   0  0  0  0  0  0  0  0  0  0  0  0
  -13.6359    3.6446   14.4470 C   0  0  0  0  0  0  0  0  0  0  0  0
  -12.7603    1.2073   14.8264 H   0  0  0  0  0  0  0  0  0  0  0  0
  -12.3251    3.3491   18.2000 C   0  0  0  0  0  0  0  0  0  0  0  0
  -12.0457    4.2993   18.0625 C   0  0  0  0  0  0  0  0  0  0  0  0
  -11.0851    4.5579   18.1650 C   0  0  0  0  0  0  0  0  0  0  0  0
  -10.6922    4.6703   19.0777 O   0  0  0  0  0  0  0  0  0  0  0  0
  -10.5174    4.7041   17.3548 N   0  0  0  0  0  0  0  0  0  0  0  0
  -10.9043    4.5934   16.4563 H   0  0  0  0  0  0  0  0  0  0  0  0
   -9.5718    4.9586   17.4557 H   0  0  0  0  0  0  0  0  0  0  0  0
  -15.4722    2.9729   20.3792 C   0  0  0  0  0  0  0  0  0  0  0  0
  -16.0357    3.7973   20.3260 C   0  0  0  0  0  0  0  0  0  0  0  0
  -16.2751    4.2939   21.1602 C   0  0  0  0  0  0  0  0  0  0  0  0
  -17.2356    4.4254   21.4057 O   0  0  0  0  0  0  0  0  0  0  0  0
  -15.5540    4.6592   21.7491 N   0  0  0  0  0  0  0  0  0  0  0  0
  -14.6085    4.5298   21.5074 H   0  0  0  0  0  0  0  0  0  0  0  0
  -15.7897    5.1482   22.5704 H   0  0  0  0  0  0  0  0  0  0  0  0
  -15.9641   -2.2379   16.7512 C   0  0  0  0  0  0  0  0  0  0  0  0
  -15.2123   -2.5913   16.1945 O   0  0  0  0  0  0  0  0  0  0  0  0
  -15.2962   -2.6204   15.2285 H   0  0  0  0  0  0  0  0  0  0  0  0
  -14.2513   -3.6487   20.1109 C   0  0  0  0  0  0  0  0  0  0  0  0
  -14.3689   -2.9693   20.8351 C   0  0  0  0  0  0  0  0  0  0  0  0
  -15.1385   -2.9156   21.4713 C   0  0  0  0  0  0  0  0  0  0  0  0
  -14.9828   -2.1374   22.0798 N   0  0  0  0  0  0  0  0  0  0  0  0
  -14.1168   -1.7102   21.8196 C   0  0  0  0  0  0  0  0  0  0  0  0
  -13.7375   -2.2244   21.0503 N   0  0  0  0  0  0  0  0  0  0  0  0
  -12.8909   -2.0311   20.5864 H   0  0  0  0  0  0  0  0  0  0  0  0
 95 96  1  0  0  0
 95 97  1  0  0  0
 95 98  1  0  0  0
 96 91  1  0  0  0
 96 99  1  0  0  0
 91 92  2  0  0  0
 91 93  1  0  0  0
 93 90  1  0  0  0
 93 94  1  0  0  0
 90103  1  0  0  0
 90 86  1  0  0  0
103104  1  0  0  0
104105  1  0  0  0
105106  2  0  0  0
105107  1  0  0  0
107108  1  0  0  0
107109  1  0  0  0
 86 87  2  0  0  0
 86 88  1  0  0  0
 88 85  1  0  0  0
 88 89  1  0  0  0
 85110  1  0  0  0
 85 81  1  0  0  0
110111  1  0  0  0
111112  1  0  0  0
112113  2  0  0  0
112114  1  0  0  0
114115  1  0  0  0
114116  1  0  0  0
 81 82  2  0  0  0
 81 83  1  0  0  0
 83 79  1  0  0  0
 83 84  1  0  0  0
 79 80  1  0  0  0
 79 75  1  0  0  0
 75 76  2  0  0  0
 75 77  1  0  0  0
 77 74  1  0  0  0
 77 78  1  0  0  0
 74117  1  0  0  0
 74 70  1  0  0  0
117118  1  0  0  0
118119  1  0  0  0
 70 71  2  0  0  0
 70 72  1  0  0  0
 72 69  1  0  0  0
 72 73  1  0  0  0
 69120  1  0  0  0
 69 65  1  0  0  0
120121  1  0  0  0
121125  1  0  0  0
121122  2  0  0  0
122123  1  0  0  0
123124  2  0  0  0
124125  1  0  0  0
125126  1  0  0  0
 65 66  2  0  0  0
 65 67  1  0  0  0
 67  1  1  0  0  0
 67 68  1  0  0  0
  1  2  1  0  0  0
  1 10  1  0  0  0
  2  8  2  0  0  0
  2  3  1  0  0  0
  3  4  2  0  0  0
  4  5  1  0  0  0
  5  6  1  0  0  0
  5  7  2  0  0  0
  6  9  1  0  0  0
  7  8  1  0  0  0
 10 11  2  0  0  0
 10 12  1  0  0  0
 12 14  1  0  0  0
 12 13  1  0  0  0
 14 58  1  0  0  0
 14 15  1  0  0  0
 58 59  1  0  0  0
 59 60  1  0  0  0
 60 61  1  0  0  0
 61 62  1  0  0  0
 62 63  1  0  0  0
 62 64  1  0  0  0
 15 16  2  0  0  0
 15 17  1  0  0  0
 17 19  1  0  0  0
 17 18  1  0  0  0
 19 51  1  0  0  0
 19 20  1  0  0  0
 51 52  1  0  0  0
 52 53  1  0  0  0
 53 54  2  0  0  0
 53 55  1  0  0  0
 55 56  1  0  0  0
 55 57  1  0  0  0
 20 21  2  0  0  0
 20 22  1  0  0  0
 22 24  1  0  0  0
 22 23  1  0  0  0
 24 44  1  0  0  0
 24 25  1  0  0  0
 44 45  1  0  0  0
 45 49  1  0  0  0
 45 46  2  0  0  0
 46 47  1  0  0  0
 47 48  2  0  0  0
 48 49  1  0  0  0
 49 50  1  0  0  0
 25 26  2  0  0  0
 25 27  1  0  0  0
 27 29  1  0  0  0
 27 28  1  0  0  0
 29 41  1  0  0  0
 29 30  1  0  0  0
 41 42  1  0  0  0
 42 43  1  0  0  0
 30 31  2  0  0  0
 30 32  1  0  0  0
 32 36  1  0  0  0
 32 33  1  0  0  0
 33 34  1  0  0  0
 34 35  1  0  0  0
 35 36  1  0  0  0
 36 37  1  0  0  0
 37 38  1  0  0  0
 37 39  2  0  0  0
 38 40  1  0  0  0
 99100  1  0  0  0
 99101  1  0  0  0
100102  1  0  0  0
M  END
> <minimizedAffinity>
-5.68032

$$$$



126129  0  0  0  0  0  0  0  0999 V2000
  -10.8228   -4.1176   18.1361 C   0  0  0  0  0  0  0  0  0  0  0  0
  -10.3889   -4.8820   18.6129 C   0  0  0  0  0  0  0  0  0  0  0  0
   -9.5751   -4.7252   19.1724 C   0  0  0  0  0  0  0  0  0  0  0  0
   -9.1412   -5.4897   19.6492 C   0  0  0  0  0  0  0  0  0  0  0  0
   -9.5211   -6.4110   19.5664 C   0  0  0  0  0  0  0  0  0  0  0  0
   -9.0872   -7.1754   20.0432 O   0  0  0  0  0  0  0  0  0  0  0  0
  -10.3349   -6.5678   19.0069 C   0  0  0  0  0  0  0  0  0  0  0  0
  -10.7688   -5.8034   18.5301 C   0  0  0  0  0  0  0  0  0  0  0  0
   -8.3246   -7.0285   20.5675 H   0  0  0  0  0  0  0  0  0  0  0  0
  -10.5432   -3.8860   17.2043 C   0  0  0  0  0  0  0  0  0  0  0  0
  -10.0326   -4.5485   16.6563 O   0  0  0  0  0  0  0  0  0  0  0  0
  -10.7744   -2.9920   16.8206 N   0  0  0  0  0  0  0  0  0  0  0  0
  -11.2771   -2.3398   17.3601 H   0  0  0  0  0  0  0  0  0  0  0  0
  -10.4948   -2.7604   15.8887 C   0  0  0  0  0  0  0  0  0  0  0  0
  -11.0779   -3.0092   15.1154 C   0  0  0  0  0  0  0  0  0  0  0  0
  -10.6673   -3.2341   14.2317 O   0  0  0  0  0  0  0  0  0  0  0  0
  -12.0715   -3.0332   15.2257 N   0  0  0  0  0  0  0  0  0  0  0  0
  -12.4757   -2.8118   16.0956 H   0  0  0  0  0  0  0  0  0  0  0  0
  -12.6546   -3.2820   14.4523 C   0  0  0  0  0  0  0  0  0  0  0  0
  -12.8141   -2.6257   13.7149 C   0  0  0  0  0  0  0  0  0  0  0  0
  -12.6351   -2.8862   12.7662 O   0  0  0  0  0  0  0  0  0  0  0  0
  -13.1527   -1.7087   13.9262 N   0  0  0  0  0  0  0  0  0  0  0  0
  -13.3289   -1.4522   14.8603 H   0  0  0  0  0  0  0  0  0  0  0  0
  -13.3122   -1.0524   13.1889 C   0  0  0  0  0  0  0  0  0  0  0  0
  -12.6161   -0.3692   12.9683 C   0  0  0  0  0  0  0  0  0  0  0  0
  -12.2633    0.2341   13.6835 O   0  0  0  0  0  0  0  0  0  0  0  0
  -12.2727   -0.2894   12.0325 N   0  0  0  0  0  0  0  0  0  0  0  0
  -12.6201   -0.8834   11.3284 H   0  0  0  0  0  0  0  0  0  0  0  0
  -11.5766    0.3937   11.8119 C   0  0  0  0  0  0  0  0  0  0  0  0
  -11.8240    1.2086   11.2877 C   0  0  0  0  0  0  0  0  0  0  0  0
  -11.7019    2.1168   11.6879 O   0  0  0  0  0  0  0  0  0  0  0  0
  -12.1937    1.1152   10.3631 N   0  0  0  0  0  0  0  0  0  0  0  0
  -12.3523    0.2554    9.8777 C   0  0  0  0  0  0  0  0  0  0  0  0
  -12.7262    0.4741    8.9763 C   0  0  0  0  0  0  0  0  0  0  0  0
  -12.7986    1.4689    8.9048 C   0  0  0  0  0  0  0  0  0  0  0  0
  -12.4695    1.8651    9.7619 C   0  0  0  0  0  0  0  0  0  0  0  0
  -12.4241    2.8400    9.9795 C   0  0  0  0  0  0  0  0  0  0  0  0
  -13.1841    3.2819   10.4562 O   0  0  0  0  0  0  0  0  0  0  0  0
  -11.6187    3.3732    9.7204 O   0  0  0  0  0  0  0  0  0  0  0  0
  -13.9386    2.7823   10.6990 H   0  0  0  0  0  0  0  0  0  0  0  0
  -10.6329    0.2621   12.1155 C   0  0  0  0  0  0  0  0  0  0  0  0
   -9.9936   -0.2586   11.5496 S   0  0  0  0  0  0  0  0  0  0  0  0
  -10.4075   -0.7875   10.3670 H   0  0  0  0  0  0  0  0  0  0  0  0
  -14.1679   -1.0792   12.6721 C   0  0  0  0  0  0  0  0  0  0  0  0
  -15.0269   -0.8199   13.1135 C   0  0  0  0  0  0  0  0  0  0  0  0
  -15.8594   -1.3729   13.1499 C   0  0  0  0  0  0  0  0  0  0  0  0
  -16.5513   -0.8569   13.6549 N   0  0  0  0  0  0  0  0  0  0  0  0
  -16.1465    0.0150   13.9307 C   0  0  0  0  0  0  0  0  0  0  0  0
  -15.2044    0.0378   13.5960 N   0  0  0  0  0  0  0  0  0  0  0  0
  -14.5640    0.7753   13.7199 H   0  0  0  0  0  0  0  0  0  0  0  0
  -13.0781   -4.1872   14.4163 C   0  0  0  0  0  0  0  0  0  0  0  0
  -12.5063   -5.0040   14.3399 C   0  0  0  0  0  0  0  0  0  0  0  0
  -12.8806   -5.9004   14.5777 C   0  0  0  0  0  0  0  0  0  0  0  0
  -13.6090   -6.3014   14.0222 O   0  0  0  0  0  0  0  0  0  0  0  0
  -12.5265   -6.3956   15.3710 N   0  0  0  0  0  0  0  0  0  0  0  0
  -11.8093   -6.0006   15.9179 H   0  0  0  0  0  0  0  0  0  0  0  0
  -12.8949   -7.2780   15.6051 H   0  0  0  0  0  0  0  0  0  0  0  0
   -9.6322   -2.2800   15.7303 C   0  0  0  0  0  0  0  0  0  0  0  0
   -9.6099   -1.2802   15.7277 C   0  0  0  0  0  0  0  0  0  0  0  0
   -8.7667   -0.7995   15.4871 C   0  0  0  0  0  0  0  0  0  0  0  0
   -8.7839    0.1857   15.3167 C   0  0  0  0  0  0  0  0  0  0  0  0
   -9.2430    0.7967   15.9617 N   0  0  0  0  0  0  0  0  0  0  0  0
   -9.6937    0.4149   16.7933 H   0  0  0  0  0  0  0  0  0  0  0  0
   -9.2606    1.8016   15.7879 H   0  0  0  0  0  0  0  0  0  0  0  0
  -12.4991   -3.8136   18.4483 C   0  0  0  0  0  0  0  0  0  0  0  0
  -12.7486   -4.5754   17.8505 O   0  0  0  0  0  0  0  0  0  0  0  0
  -11.5362   -3.5847   18.5911 N   0  0  0  0  0  0  0  0  0  0  0  0
  -11.2905   -2.8347   19.1796 H   0  0  0  0  0  0  0  0  0  0  0  0
  -13.2125   -3.2806   18.9033 C   0  0  0  0  0  0  0  0  0  0  0  0
  -13.9365   -2.0949   17.8690 C   0  0  0  0  0  0  0  0  0  0  0  0
  -13.0863   -1.5685   17.8773 O   0  0  0  0  0  0  0  0  0  0  0  0
  -13.9996   -2.9510   18.3820 N   0  0  0  0  0  0  0  0  0  0  0  0
  -14.8366   -3.4693   18.3738 H   0  0  0  0  0  0  0  0  0  0  0  0
  -14.7236   -1.7652   17.3477 C   0  0  0  0  0  0  0  0  0  0  0  0
  -15.3274   -0.1874   17.7293 C   0  0  0  0  0  0  0  0  0  0  0  0
  -15.7658   -0.5537   18.5500 O   0  0  0  0  0  0  0  0  0  0  0  0
  -14.8063   -0.7932   17.1281 N   0  0  0  0  0  0  0  0  0  0  0  0
  -14.3746   -0.4326   16.3201 H   0  0  0  0  0  0  0  0  0  0  0  0
  -15.4101    0.7847   17.5098 C   0  0  0  0  0  0  0  0  0  0  0  0
  -16.1989    1.3057   17.8360 C   0  0  0  0  0  0  0  0  0  0  0  0
  -14.3633    2.1367   17.2334 C   0  0  0  0  0  0  0  0  0  0  0  0
  -14.7287    2.5862   18.0485 O   0  0  0  0  0  0  0  0  0  0  0  0
  -14.7040    1.2359   16.9640 N   0  0  0  0  0  0  0  0  0  0  0  0
  -14.3443    0.7933   16.1616 H   0  0  0  0  0  0  0  0  0  0  0  0
  -13.6572    2.5879   16.6876 C   0  0  0  0  0  0  0  0  0  0  0  0
  -12.0371    2.6945   17.2908 C   0  0  0  0  0  0  0  0  0  0  0  0
  -11.8637    1.7565   16.9908 O   0  0  0  0  0  0  0  0  0  0  0  0
  -12.9338    3.1102   17.1392 N   0  0  0  0  0  0  0  0  0  0  0  0
  -13.1046    4.0337   17.4346 H   0  0  0  0  0  0  0  0  0  0  0  0
  -11.3137    3.2168   17.7425 C   0  0  0  0  0  0  0  0  0  0  0  0
  -10.3244    4.2659   16.7830 C   0  0  0  0  0  0  0  0  0  0  0  0
  -11.0527    4.9511   16.7812 O   0  0  0  0  0  0  0  0  0  0  0  0
  -10.4549    3.3987   17.2636 N   0  0  0  0  0  0  0  0  0  0  0  0
   -9.7379    2.7240   17.2654 H   0  0  0  0  0  0  0  0  0  0  0  0
   -8.6232    4.5888   16.8244 N   0  0  0  0  0  0  0  0  0  0  0  0
   -9.4655    4.4478   16.3042 C   0  0  0  0  0  0  0  0  0  0  0  0
   -7.7471    4.7744   16.3361 H   0  0  0  0  0  0  0  0  0  0  0  0
   -8.6401    4.5472   17.8434 H   0  0  0  0  0  0  0  0  0  0  0  0
   -9.4489    4.4886   15.3051 C   0  0  0  0  0  0  0  0  0  0  0  0
   -9.4776    3.6445   14.7697 O   0  0  0  0  0  0  0  0  0  0  0  0
   -9.4036    5.3735   14.8416 C   0  0  0  0  0  0  0  0  0  0  0  0
   -9.5216    2.7861   15.2194 H   0  0  0  0  0  0  0  0  0  0  0  0
  -11.4492    3.5571   18.6729 C   0  0  0  0  0  0  0  0  0  0  0  0
  -10.8608    3.2341   19.4141 C   0  0  0  0  0  0  0  0  0  0  0  0
  -10.8455    3.7196   20.2883 C   0  0  0  0  0  0  0  0  0  0  0  0
  -10.5883    4.6854   20.3194 O   0  0  0  0  0  0  0  0  0  0  0  0
  -11.0875    3.2392   21.1313 N   0  0  0  0  0  0  0  0  0  0  0  0
  -11.3406    2.2883   21.1006 H   0  0  0  0  0  0  0  0  0  0  0  0
  -11.0724    3.7171   21.9918 H   0  0  0  0  0  0  0  0  0  0  0  0
  -13.6744    2.5168   15.6903 C   0  0  0  0  0  0  0  0  0  0  0  0
  -13.9340    3.3084   15.1371 C   0  0  0  0  0  0  0  0  0  0  0  0
  -13.5500    3.4259   14.2213 C   0  0  0  0  0  0  0  0  0  0  0  0
  -12.6785    3.9015   14.1018 O   0  0  0  0  0  0  0  0  0  0  0  0
  -14.0374    3.0678   13.4249 N   0  0  0  0  0  0  0  0  0  0  0  0
  -14.8954    2.5995   13.5425 H   0  0  0  0  0  0  0  0  0  0  0  0
  -13.6593    3.1835   12.5233 H   0  0  0  0  0  0  0  0  0  0  0  0
  -15.4280   -2.4077   17.0459 C   0  0  0  0  0  0  0  0  0  0  0  0
  -15.5255   -2.6225   16.0741 O   0  0  0  0  0  0  0  0  0  0  0  0
  -16.2088   -3.2457   15.7814 H   0  0  0  0  0  0  0  0  0  0  0  0
  -13.1388   -3.0774   19.8797 C   0  0  0  0  0  0  0  0  0  0  0  0
  -13.9385   -3.1740   20.4723 C   0  0  0  0  0  0  0  0  0  0  0  0
  -14.3636   -4.0354   20.7501 C   0  0  0  0  0  0  0  0  0  0  0  0
  -15.1414   -3.8199   21.3407 N   0  0  0  0  0  0  0  0  0  0  0  0
  -15.1969   -2.8252   21.4278 C   0  0  0  0  0  0  0  0  0  0  0  0
  -14.4535   -2.4261   20.8911 N   0  0  0  0  0  0  0  0  0  0  0  0
  -14.2622   -1.4654   20.7924 H   0  0  0  0  0  0  0  0  0  0  0  0
 95 96  1  0  0  0
 95 97  1  0  0  0
 95 98  1  0  0  0
 96 91  1  0  0  0
 96 99  1  0  0  0
 91 92  2  0  0  0
 91 93  1  0  0  0
 93 90  1  0  0  0
 93 94  1  0  0  0
 90103  1  0  0  0
 90 86  1  0  0  0
103104  1  0  0  0
104105  1  0  0  0
105106  2  0  0  0
105107  1  0  0  0
107108  1  0  0  0
107109  1  0  0  0
 86 87  2  0  0  0
 86 88  1  0  0  0
 88 85  1  0  0  0
 88 89  1  0  0  0
 85110  1  0  0  0
 85 81  1  0  0  0
110111  1  0  0  0
111112  1  0  0  0
112113  2  0  0  0
112114  1  0  0  0
114115  1  0  0  0
114116  1  0  0  0
 81 82  2  0  0  0
 81 83  1  0  0  0
 83 79  1  0  0  0
 83 84  1  0  0  0
 79 80  1  0  0  0
 79 75  1  0  0  0
 75 76  2  0  0  0
 75 77  1  0  0  0
 77 74  1  0  0  0
 77 78  1  0  0  0
 74117  1  0  0  0
 74 70  1  0  0  0
117118  1  0  0  0
118119  1  0  0  0
 70 71  2  0  0  0
 70 72  1  0  0  0
 72 69  1  0  0  0
 72 73  1  0  0  0
 69120  1  0  0  0
 69 65  1  0  0  0
120121  1  0  0  0
121125  1  0  0  0
121122  2  0  0  0
122123  1  0  0  0
123124  2  0  0  0
124125  1  0  0  0
125126  1  0  0  0
 65 66  2  0  0  0
 65 67  1  0  0  0
 67  1  1  0  0  0
 67 68  1  0  0  0
  1  2  1  0  0  0
  1 10  1  0  0  0
  2  8  2  0  0  0
  2  3  1  0  0  0
  3  4  2  0  0  0
  4  5  1  0  0  0
  5  6  1  0  0  0
  5  7  2  0  0  0
  6  9  1  0  0  0
  7  8  1  0  0  0
 10 11  2  0  0  0
 10 12  1  0  0  0
 12 14  1  0  0  0
 12 13  1  0  0  0
 14 58  1  0  0  0
 14 15  1  0  0  0
 58 59  1  0  0  0
 59 60  1  0  0  0
 60 61  1  0  0  0
 61 62  1  0  0  0
 62 63  1  0  0  0
 62 64  1  0  0  0
 15 16  2  0  0  0
 15 17  1  0  0  0
 17 19  1  0  0  0
 17 18  1  0  0  0
 19 51  1  0  0  0
 19 20  1  0  0  0
 51 52  1  0  0  0
 52 53  1  0  0  0
 53 54  2  0  0  0
 53 55  1  0  0  0
 55 56  1  0  0  0
 55 57  1  0  0  0
 20 21  2  0  0  0
 20 22  1  0  0  0
 22 24  1  0  0  0
 22 23  1  0  0  0
 24 44  1  0  0  0
 24 25  1  0  0  0
 44 45  1  0  0  0
 45 49  1  0  0  0
 45 46  2  0  0  0
 46 47  1  0  0  0
 47 48  2  0  0  0
 48 49  1  0  0  0
 49 50  1  0  0  0
 25 26  2  0  0  0
 25 27  1  0  0  0
 27 29  1  0  0  0
 27 28  1  0  0  0
 29 41  1  0  0  0
 29 30  1  0  0  0
 41 42  1  0  0  0
 42 43  1  0  0  0
 30 31  2  0  0  0
 30 32  1  0  0  0
 32 36  1  0  0  0
 32 33  1  0  0  0
 33 34  1  0  0  0
 34 35  1  0  0  0
 35 36  1  0  0  0
 36 37  1  0  0  0
 37 38  1  0  0  0
 37 39  2  0  0  0
 38 40  1  0  0  0
 99100  1  0  0  0
 99101  1  0  0  0
100102  1  0  0  0
M  END
> <minimizedAffinity>
-5.67814

$$$$
